26
C8H10F3NO3S optimized with DFTB in AMS.
N         0.14746626335898      -0.09968982538670      -0.46847939872051
C         1.59526978017217      -0.15869951506739      -0.70781231855399
C        -0.47340737706481       1.08470109002091      -0.56376429524720
C        -0.54478196060141      -1.23852242013329      -0.32381829808855
C         2.35024022710916       0.17896689670581       0.56983699723739
C        -1.84557198549154       1.16705683342369      -0.43002047954655
C        -1.91729094975535      -1.21033642722601      -0.18961441707074
C        -2.58311589172380       0.00726714864157      -0.24387637609902
H         1.83350878740555      -1.16417616363483      -1.05916958841458
H         1.81838558214987       0.55378512531430      -1.50579093871699
H         0.14479351824922       1.95392112104292      -0.74310216136906
H         0.01802719955893      -2.16223921716061      -0.33068913796524
H         2.10403951648962       1.18584421514675       0.90638529775841
H         3.42015081094915       0.12517228749125       0.37510390123372
H         2.09948883368918      -0.52813955796566       1.36059772804719
H        -2.32934633364810       2.13104250732418      -0.51642976331989
H        -2.45981786543969      -2.14037631455521      -0.08198576267110
H        -3.66270790720594       0.04724361111376      -0.16732778467371
S        -0.06142499524379      -0.33486232155328      -3.68984124734704
O         0.05828112412349      -1.48102932157436      -2.79151101090874
O         0.71356339572313      -0.41561080340684      -4.89717361779813
O         0.00438830572227       0.95177326537587      -2.99459583254862
C        -1.83606103501373      -0.41543334649810      -4.21990896675530
F        -2.62167350464357      -0.32030814796203      -3.13381526116361
F        -2.11893711104486      -1.56267123234058      -4.82099434672391
F        -2.15416237932413       0.58012639236385      -5.03482122887422
