40
C12H22F3NO2 optimized with ADF in AMS.
N        -0.01534744537380       0.10190478158550      -0.15376815831470
C        -0.85328252885067       0.78523690406932      -1.22830566888003
C        -0.64893028314715      -1.23503874809964       0.17427924060944
C         1.36787983633052      -0.13131253579667      -0.75217963722799
C        -2.30766051569112       0.93732838211551      -0.83071051899626
C        -2.11772160257083      -1.13685757099831       0.56437284341870
C         0.07306181843657       0.94939049247991       1.10079180304017
C        -2.93498008356358      -0.41856916398146      -0.50959062291019
C         2.42153684109442      -0.68417193888938       0.18744461194222
C         0.74801480252903       2.29134532776362       0.90643427382048
C         3.73686439833772      -0.81563839478765      -0.58695666039328
H        -0.74654695372136       0.15499891350947      -2.12476199193159
H        -0.34722157517537       1.72122868863309      -1.49580295399594
H        -0.04602687687875      -1.69664527842703       0.96841240008231
H        -0.53953293720349      -1.83674570023924      -0.74201198379297
H         1.66485987392891       0.81792269608265      -1.22429646008689
H         1.20184083674929      -0.80945437885899      -1.60350886916308
H        -2.82059357809792       1.41626029214278      -1.68103817660950
H        -2.42182909695015       1.63025241444106       0.02133716223694
H        -2.22851587076840      -0.62989514937513       1.53791714407866
H        -2.48245348309090      -2.16703778635248       0.71385481030501
H        -0.95362056481596       1.08274333660744       1.46244654697934
H         0.60725652007140       0.33486152063728       1.84032382573111
H        -3.98044218529776      -0.30362912049763      -0.18287289692378
H        -2.94811301620333      -1.03281743126538      -1.42836357373452
H         2.58365949029147      -0.01128875869128       1.04570639253569
H         2.13290033774872      -1.67059889110757       0.59087135763705
H         0.76996985679898       2.79909913638799       1.88311967177045
H         1.78050548699365       2.20177127924023       0.54517502283459
H         0.20697674914823       2.93738398071795       0.20307408979955
H         4.52638262790654      -1.22922862260346       0.05634101001361
H         3.61849893345893      -1.47877622185969      -1.45752420315470
H         4.06539166496030       0.16586386794520      -0.96097983936257
C         1.86169417234365       2.25940097597448      -3.71516618697040
O         2.33351419942484       2.37563421875589      -4.85162012495304
O         1.12740190732832       1.38129375478230      -3.17550020700895
C         2.24381316326445       3.40043456084312      -2.69374434032895
F         1.13421478212705       3.93365121858248      -2.05201522808172
F         2.91219560840112       4.44889722111441      -3.22974021215127
F         3.05012352362642       2.90356079681930      -1.66842926426300
