46
C12H19F6N3O4S2 optimized with DFTB in AMS.
N         1.88519690979117      -1.59055445152918       0.66693682548648
N         0.60975975048492      -1.39379328672558      -1.05804973082742
C         2.47755027480970      -1.37488395367671       1.98480279475925
C         3.54601141482533      -0.27755007065552       1.93626227037354
C        -0.46619278146781      -0.96632178634290      -1.94842249234481
C         0.79253413299309      -0.98667040563772       0.19879369146660
C         2.96670713094137       1.08779497386845       1.55866053978041
C         2.42355779990121      -2.37422301216949      -0.31440247596641
C         1.61979698961222      -2.25047382962130      -1.40317065336106
C        -0.12789575579858       0.35802861827262      -2.64282307574938
C         4.06782839320254       2.14101082334481       1.45543872707620
C        -0.24125807350250       1.55757040702785      -1.70840365497752
H         1.67173722868976      -1.10722302271291       2.67442585368181
H         2.92200023815416      -2.32153968585388       2.30173277245573
H         4.31663291837560      -0.56190889232418       1.21601731882770
H         4.00509192699174      -0.22903466915760       2.92763894399395
H        -1.38124941262245      -0.87434502683841      -1.35544306881297
H        -0.60198160679024      -1.75784865404075      -2.68938932346176
H         0.14831138213461      -0.32676964620288       0.75215334870481
H         2.46095853007487       1.01064559081070       0.59179698377291
H         2.22453444425719       1.39169156723146       2.30613194402114
H         3.33091857695336      -2.93369048644446      -0.16545931793697
H         1.69244737612182      -2.68376859093806      -2.38477784666092
H         0.88413706151153       0.30178176051458      -3.04916746331937
H        -0.82506038015212       0.47421747303191      -3.47751540869982
H         4.77978475580382       1.86556276593269       0.67832165769810
H         4.60058883605906       2.23713737651950       2.40246704165376
H         3.63034554036179       3.10571347757684       1.19962239925206
H         0.46582008324644       1.46887138367600      -0.88442167842227
H        -1.25101734707108       1.64152129350101      -1.30297775228544
H        -0.00436120383724       2.46677816073074      -2.25880031254311
N         4.25241239017987      -0.46200660143426      -1.14766508587515
S         5.56934856502442      -1.36761277207864      -1.33559930150681
S         4.00610711999255       0.74843600148370      -2.16473119049784
C         7.07484045913371      -0.35811282904885      -0.85588219464344
C         3.64201162960459       0.04054564212128      -3.86715034651405
O         5.47993469169329      -2.36648807365733      -0.29008231676172
O         5.80114414704390      -1.81554792320639      -2.68563528615385
O         5.11599399921353       1.64751161796498      -2.34359151146621
O         2.72512443585934       1.30669060758000      -1.78085147146393
F         7.99717575929563      -1.17705914019742      -0.37743284797507
F         6.73982274004582       0.50305604803394       0.09774557192021
F         7.56959156477664       0.29459752781751      -1.88428074535891
F         2.79203992363425       0.85113376006188      -4.48764175426961
F         3.03612049531405      -1.14304500164112      -3.72623603247811
F         4.71454050963313      -0.10297779546687      -4.60837112969075
