34
C8H15F2N3O4S2 optimized with DFTB in AMS.
H         1.07759271421792      -1.13010367344778      -4.78255047619182
H         0.81328600583271       0.61426177928021      -4.57728904647816
H        -0.54429035742176      -0.52584929879528      -4.32678576831535
C         0.53051624984588      -0.37643142945043      -4.22065598143928
H         2.51025459235728      -1.56409023149965      -0.21310862579883
H         2.06133787102958      -2.28189005833887      -2.85017393493342
H         0.09741875895869       1.36072488046369      -2.04942252485775
N         0.90526519035808      -0.47909870177682      -2.81891326960096
C         0.65441826370241       0.45201120229577      -1.89850079229096
N         1.26539944723787       0.08740472744630      -0.77503552025828
C         1.92190478327047      -1.09423153058587      -0.98110629280747
C         1.69976983862142      -1.44834202594310      -2.27450559637543
C         1.29727335736274       0.86394074731085       0.45923998696410
H         2.31883671341332       0.82397101851822       0.84541394533529
H         1.05721416429450       1.89922289669509       0.20623081885093
C         0.29950191345000       0.29596186718254       1.46930659351336
H         0.54956365510443      -0.74901808135000       1.67850579118582
H        -0.70563611413215       0.32090473223560       1.03613325008357
C         0.33060148296861       1.11067685199610       2.76630549486429
H         1.34141381287254       1.08425022335741       3.18566380673231
H         0.08709294478798       2.15438764478990       2.54356590607183
C        -0.66156915286810       0.56130499082133       3.78893153616411
H        -0.42203234421216      -0.47339044838425       4.03722692194100
H        -1.67778529252231       0.59818306414337       3.39450314003356
H        -0.62066323448630       1.15628118239754       4.70094041045051
N         2.77590335149258       1.65933987995048      -3.36852291621074
S         3.01471675806178       2.52335230066203      -2.06000035422901
S         3.96189041458542       0.73043951008825      -3.88747865064303
F         3.95925369497877       3.74084824227935      -2.50999529751381
F         4.25047964597894      -0.28472247312916      -2.64165426561759
O         1.75306408551083       3.13558136047503      -1.74667755773553
O         3.71720473463771       1.88424222636338      -0.98787498234095
O         5.21445106928020       1.35627034747761      -4.13120283602018
O         3.39172257433014      -0.12668910072877      -4.88307464073215
