48
C14H25F3N2O3S optimized with ADF in AMS.
N         1.37212001757659       1.64842896895392       2.14329570882680
N        -0.74589196594435       2.00518364185140       1.85229321392690
C         2.79668131069718       1.47627533372165       1.83753351049337
C        -2.01581059231446       2.33682858427810       1.18718031818581
C         3.12176647438932       0.02043014669148       1.51279767627949
C        -2.28436084035085       1.40140834228442       0.01338855349408
C         2.38529509374485      -0.50626206659196       0.28293365877459
C        -2.29143651283036      -0.07641272755216       0.39840300786280
C         0.43999667051196       1.95647453403710       1.23210833870426
C         0.77019148813163       1.50358090701331       3.37463609563550
C        -0.56408839643772       1.73092343674487       3.19095893851757
C         2.73225572654935      -1.95507633994260      -0.05357054321531
C        -2.51529883823725      -1.00931393804260      -0.79010018606088
C         1.95363272155477      -2.47135037706029      -1.26121985017673
C        -2.47796955398768      -2.48285428853731      -0.39289531599458
H         3.35849377053440       1.83885085355954       2.71079294979865
H         3.00363217815408       2.15360609185525       0.99372612474240
H        -1.93144076446123       3.38350393972482       0.85733360308571
H        -2.79695658103928       2.24351238851579       1.95535532483041
H         2.89418772951441      -0.61595271434830       2.38801508492665
H         4.21266195439619      -0.04196701692941       1.35232577566843
H        -3.25766485339890       1.69142214661439      -0.42011715914707
H        -1.53675252245748       1.59293060640102      -0.77670256974137
H         2.61081325588382       0.14283700122404      -0.58398711905983
H         1.29394425425758      -0.44186072316054       0.44701252173735
H        -3.07343154085024      -0.25716587534144       1.16102762100548
H        -1.33038734840891      -0.34042080362518       0.87806824970249
H         0.65064325572247       2.21436100695495       0.19995191827258
H         1.33943439936109       1.28417091470760       4.26904856404057
H        -1.38745580168663       1.74582889298305       3.89374074506641
H         2.52295944557141      -2.59255660279396       0.82546439272562
H         3.81777480680940      -2.03698107940443      -0.24437047675475
H        -3.48610387958596      -0.77326332762023      -1.26307405385463
H        -1.74328241200511      -0.80998620769318      -1.55559480388349
H         2.16729990895393      -1.86463832936198      -2.15596174051100
H         0.86762928056046      -2.42569241811749      -1.07898561760379
H         2.21267830618245      -3.51629153490373      -1.49183879745938
H        -3.25526871837811      -2.71138261225874       0.35446230889165
H        -1.50386957453612      -2.74809172082464       0.04930436798371
H        -2.64264548680053      -3.13901478335014      -1.26120666289527
S         1.22941018155534       4.86977597605873      -0.11242536803271
O         1.49581962563242       6.02182130160421      -0.96630923612746
O         2.14992873513149       3.71210060970513      -0.26759356447030
O        -0.18864016778530       4.46485161939804       0.03295149286196
C         1.65265421601490       5.49871425538472       1.60992045020860
F         0.86537110985324       6.54676735757997       1.95868066860545
F         2.94877527727328       5.89665580316457       1.68655448148847
F         1.47444203547846       4.52511391164821       2.56850979954480
