39
C11H18F2N2O4S2 optimized with ADF in AMS.
N         2.84722128909098       0.38854409744660      -0.39643674016387
C        -0.88896862551975       0.50822617093443      -0.86983194691175
C         0.37299430631726      -0.02734439169441      -0.19131554578598
C        -2.08139578067706       0.55410889688124       0.08256866685596
C         1.58451439057025       0.07939469507437      -1.12195890169549
C        -3.33512509669560       1.13249708150491      -0.57125637344938
C        -4.50423018873770       1.24805856103891       0.40344903287423
C         3.17797446248556      -0.31233690692805       0.70848027763450
C         3.60067741160261       1.43677403971696      -0.80039849514069
C         4.29391353276178       0.02642805726287       1.44752450586921
C         4.72870763247601       1.80700343494998      -0.09888088032658
C         5.07547396998614       1.10651880721619       1.04999259091883
H        -1.13605918161441      -0.09906110606474      -1.76125187350543
H        -0.67722841680479       1.53519797918730      -1.21724118327608
H         0.56433013123692       0.57718777724851       0.70763728111874
H         0.21754374441217      -1.07139082009534       0.13132497916345
H        -2.29887818781867      -0.46148716768016       0.46373831594889
H        -1.80733441933212       1.17636068990111       0.95409499900594
H         1.44026920779387       0.91188409924200      -1.82173872108450
H         1.75643051538323      -0.84142793513063      -1.70248240790450
H        -3.09626819879515       2.13161730930839      -0.97841332803897
H        -3.62565510774353       0.50313095905199      -1.43271178948530
H        -4.24270291208919       1.90570401476162       1.24755838045362
H        -5.39636685047453       1.66585529343124      -0.08784308454997
H        -4.77459273903304       0.26280696566964       0.81590115243140
H         2.50031778665349      -1.11432788673230       0.99058461280555
H         3.24409083056888       1.98287711253350      -1.66876255336741
H         4.51729116241352      -0.53157590886970       2.35604251064727
H         5.28148833184789       2.68962737691296      -0.41582431005871
H         5.92226264827892       1.43396393499842       1.65318878743161
N         2.00777410344435       4.58376053155053       1.94168410118451
S         1.24355040406298       3.30699466201211       1.39999027890969
S         3.57847700352150       4.82021753813304       1.69148892332937
F         1.92948776922318       2.01194948454438       2.23259977267177
F         3.71104066474189       4.90862599802684       0.02933274829621
O        -0.12706773467358       3.31904902563000       1.86622844254721
O         1.50899913246724       2.94568519127091       0.00626127100872
O         4.42964019180338       3.68452379631004       2.02300586048827
O         3.91460401356509       6.14454627794434       2.15637469094967
