40
C12H22F3NO2 optimized with ForceField in AMS.
N        -0.10835464884636       0.02387278766891      -0.07202725589831
C        -1.02015482148532       0.53632195157056      -1.14653405585357
C        -0.63023017188654      -1.29545404214772       0.41375139035339
C         1.23182148129002      -0.19775312603846      -0.71808107564565
C        -2.49432713665840       0.64607354817999      -0.72214857381158
C        -2.10615905672460      -1.26381567783666       0.86216655294525
C        -0.01285790383079       0.98219756946333       1.08403474225866
C        -3.01239170750344      -0.70163049896527      -0.22977728819543
C         2.37222250198881      -0.65051341756985       0.22779977582495
C         0.59385930393070       2.36035246976460       0.76191344493885
C         3.66680095878019      -0.88035455715698      -0.55043841074850
H        -0.98960616721320      -0.14450436526573      -2.02948234110744
H        -0.68489656609841       1.52264565722472      -1.52932292982711
H        -0.03900473942888      -1.66252350122272       1.28017993583523
H        -0.54163697355828      -2.06749267640533      -0.38499097079235
H         1.56353619150923       0.72418073819205      -1.24306205934651
H         1.14210224317224      -0.96545774838691      -1.52181105548322
H        -3.09723757716711       0.96069030220739      -1.60160954470531
H        -2.63328232211001       1.42510372356862       0.05544771929502
H        -2.22480324170852      -0.67616074112093       1.79625494406433
H        -2.43057991995317      -2.30129555969296       1.09552052794371
H        -1.00717740592552       1.17273712551651       1.53202728428544
H         0.57819801137084       0.53469244443752       1.91212350897197
H        -4.04254868321293      -0.57902591471512       0.16964407383759
H        -3.05800499374856      -1.41699715001757      -1.08053334217209
H         2.58064564974605       0.12093342871341       0.99652844779082
H         2.11120808120843      -1.60050331440346       0.73588110811150
H         0.62563496099051       2.96072964431350       1.69567117875109
H         1.63463886817064       2.28246084741228       0.39006386212439
H        -0.02757402334079       2.92334241653644       0.03831776391297
H         4.47043567342430      -1.19601939938251       0.14821682203081
H         3.52694401241359      -1.67764985284228      -1.31125884612138
H         3.98749642561966       0.05528245405296      -1.05565100111024
C         2.53781416614165       3.33762949929742      -4.38747869379001
O         2.98969779809249       4.23557357533179      -5.08013725962264
O         2.06143315693220       2.34747943433091      -4.91890720575044
C         2.56136107861445       3.44460639189669      -2.89153052201601
F         1.26637788080877       3.42508815536259      -2.40877064436437
F         3.17275530954352       4.62140459577170      -2.49517948179665
F         3.26158314055254       2.37651185145660      -2.36379609751716
