37
C11H18F6NP optimized with ForceField in AMS.
N         2.34500468799848       0.01986746582596      -0.41071130108600
C        -1.46489055100750       0.05611678607560      -0.69451830872261
C        -0.08149869340857       0.01443898802242      -0.03607981801139
C        -2.57186649749351      -0.01155010122616       0.36445654366499
C         1.03867841936360       0.07680512094683      -1.07824174818673
C        -3.96169339584588       0.01892412002579      -0.28119948299396
C        -5.05940429923681      -0.05236106091777       0.77669130172367
C         2.93314092825351      -1.19237620008804      -0.17211922839726
C         2.94701051055411       1.17678313892554       0.00348223370791
C         4.16031083263121      -1.26651907087240       0.49097231174866
C         4.17443595951186       1.13787694082388       0.66949343573889
C         4.78247026580330      -0.09271680841087       0.91339709997472
H        -1.56743490320284      -0.80501290389197      -1.39121548002116
H        -1.56809493138630       0.99810610565464      -1.27714877417768
H         0.02298077527526       0.87531374406436       0.66031813939234
H         0.02078050684500      -0.92554049170207       0.54955057237059
H        -2.46134037212683      -0.94986925645583       0.95172582187309
H        -2.47025622950961       0.85267502328018       1.05751768728177
H         0.95057725757622       1.01412123194186      -1.67205157376327
H         0.93589606526006      -0.76883235445773      -1.79474768470717
H        -4.08441847607667       0.95745276884833      -0.86450542986383
H        -4.07317747374145      -0.84390856702608      -0.97349678280427
H        -4.98593950643444       0.81423293131703       1.46792901339504
H        -6.05398841941058      -0.03006225876506       0.28356594304704
H        -4.97299343961366      -0.99422241556409       1.35951708621808
H         2.45215947792062      -2.11050979439340      -0.48836943071060
H         2.47838355229589       2.13722053952452      -0.17616871914886
H         4.62353670440208      -2.22679388595371       0.67671167729942
H         4.65029684261485       2.05485951361970       0.99185922537723
H         5.73393203622832      -0.13647172583843       1.42669171247930
P         4.88708040292478      -0.24585677159942      -3.90080685235231
F         6.40236794119261      -0.98333070163573      -3.56468526250926
F         5.00086836140621       0.32573577419659      -2.28773837138192
F         5.34427286643695       1.36193455845829      -4.29883688656777
F         3.23597405226522       0.18735778967874      -4.09982740661372
F         5.19366303592201      -0.61703273198884      -5.55044781265105
F         4.10302671861247      -1.71951072264264      -3.49186252752191
