41
C11H24BF4N optimized with DFTB in AMS.
N        -0.32385917926262       0.21557473771199      -0.27376972182329
C        -1.21226422920844       0.79669679179686      -1.34075342375028
C        -0.60013180686829      -1.26129520567554      -0.17904596478313
C         1.09268597063069       0.42342817985176      -0.74881204317033
C        -0.54189087276768       0.84873696586430       1.06755009844342
C        -2.69088420391030       0.54239439522822      -1.08778273293296
C        -2.06986736507512      -1.58376940434020       0.06426868796485
C        -2.96088962712364      -0.95826150480809      -1.00599414210989
C         2.18149356996342      -0.07144377271129       0.19934343412064
C        -0.26149529957909       2.34342775478906       1.12747681673864
C         3.49739725850963      -0.17715216978136      -0.58370252158862
C         4.64245711213738      -0.62881062384639       0.31841173303001
H        -0.91242815906390       0.32077158995490      -2.27817201757486
H        -1.00171295169339       1.86541274125849      -1.40571254420503
H         0.00595183940484      -1.66282632179580       0.63497391322803
H        -0.27199791719705      -1.70177326011076      -1.12294592486053
H         1.21586973263028       1.49174073960606      -0.93995953449880
H         1.17631609564130      -0.10113094079310      -1.70140748033108
H        -1.57859602255113       0.66625607904630       1.35467821092843
H         0.10406991802489       0.32232020175025       1.77437459311997
H        -3.24052184481433       0.97131660673770      -1.92990038429712
H        -3.03073446114497       1.04726016780419      -0.17757208353523
H        -2.38291184155777      -1.25588915258370       1.06123669274995
H        -2.16441300060161      -2.67236615179302       0.03083917512358
H        -4.01154442770408      -1.13738819094900      -0.76572538424000
H        -2.73928612396905      -1.41707855062684      -1.97321722759082
H         1.93479133833840      -1.05837078649005       0.59800134046032
H         2.30541202579851       0.61391831029398       1.04422057561959
H        -0.47306722390181       2.67769491907169       2.14325051666395
H         0.77896558727315       2.57150475765741       0.90475191727162
H        -0.90085894476630       2.90171718558922       0.44612823943243
H         3.73820376888212       0.79517672851495      -1.02555219148609
H         3.36402478530485      -0.89469961999316      -1.39926709323048
H         4.42467534525620      -1.60528809662339       0.75319455893879
H         4.79995819831899       0.08532444066802       1.12853380798213
H         5.56217418278539      -0.70479935800667      -0.26132637020625
B         0.37986509921403      -1.49415618848632      -3.58448257733912
F        -0.94961451280813      -1.71528501000180      -3.13101923692185
F         1.24504170844896      -1.94515886406228      -2.55227740847228
F         0.54728961434756      -0.08961600501336      -3.67746301026113
F         0.62559662255808      -2.12172334500323      -4.76616275070716
