54
C14H30F2N2O4S2 optimized with ADF in AMS.
N        -0.11802215710644       1.84669272916268       0.14477626254396
C         0.30216768564336       2.55261886359214       1.41372026342336
C        -0.82856937623373       2.95469776278300      -0.61348103157769
C         1.09481484048722       1.39079923536086      -0.65417332984215
C        -1.05354385244749       0.69903891292873       0.45199992409250
C         0.76823396035917       3.93826317502243       0.96238765543505
C         0.02247449614262       4.19950803144937      -0.37424569602341
C         1.89920523395336       0.26156177403201      -0.03916202277874
C        -1.49274386424197      -0.09884306204113      -0.76219340108535
C         2.97573722299168      -0.17628592142238      -1.03939095271658
C        -2.59885790192156      -1.08420128085300      -0.37747195314911
C         3.80805675538043      -1.35081848474973      -0.53100157272207
C        -3.03462104736338      -1.95477671150478      -1.55624924493499
C         4.81141554915087      -1.83588813016385      -1.57427665163077
C        -4.17571690659059      -2.89691576360503      -1.18364850391331
H         1.05887492277055       1.94942183351403       1.92982954550641
H        -0.59885503529931       2.61475653701705       2.04270228566006
H        -1.82501497475529       3.04278283822902      -0.15372059934403
H        -0.92802962819987       2.68319276078200      -1.66888680251635
H         1.71771743084623       2.28343031090551      -0.80547840240869
H         0.72057049892627       1.08970566292624      -1.64378636506522
H        -1.92106195219555       1.15722284075536       0.95555123528740
H        -0.53870515671666       0.05930294348175       1.18486359150799
H         1.85819812507643       3.96099212219793       0.81823233548315
H         0.52837493400700       4.68547740708828       1.73235325470494
H        -0.61785307294914       5.09153032868263      -0.32749854822963
H         0.72063934013659       4.34276748139451      -1.21082662157296
H         1.25412264233576      -0.60951600409443       0.16417351504593
H         2.37238485844763       0.55687320307655       0.91479252610161
H        -0.64520858746465      -0.65761481131680      -1.18765499251437
H        -1.86278022900899       0.57092889811611      -1.55574225982222
H         3.63905414305301       0.67713314921548      -1.27229287411863
H         2.47937211305043      -0.46172489178157      -1.98206817958956
H        -3.47299866651550      -0.52650233083358       0.00937966247999
H        -2.25016663625190      -1.73466684279925       0.44747821451847
H         3.12872724755292      -2.18030825878496      -0.26268476463299
H         4.33671704056245      -1.06095547779311       0.39600256798064
H        -2.16777793352344      -2.53087627410585      -1.92198444195660
H        -3.33715633714922      -1.30616652828411      -2.39613282262549
H         5.40415608965747      -2.68345311830979      -1.19831762140541
H         4.29008722073920      -2.16195976394376      -2.48774872370067
H         5.50994415020190      -1.03122196794019      -1.85480450020676
H        -4.48085509159941      -3.51122302569299      -2.04395793471906
H        -3.87902658021720      -3.57946105305017      -0.37033082042271
H        -5.05936537679551      -2.33340423921363      -0.84254070250320
N         0.41227118519504       0.62483213753689      -3.63414580612365
S        -0.11410554615641       1.96657647746549      -4.33076992898763
S        -0.05534237764273      -0.84287840376005      -4.11519229750287
F        -1.70566254259683       2.04202014823995      -3.78471947685427
F         0.85662878775515      -1.09374900981566      -5.45655796627475
O         0.50793597227838       3.07250796724620      -3.61418372227253
O        -0.23302880243189       1.97448393087010      -5.77060167033182
O        -1.42695447837197      -0.96114078285603      -4.56410843667514
O         0.48273784164549      -1.77095436305650      -3.13155802902008
