42
C10H22F2N2O4S2 optimized with DFTB in AMS.
N        -0.19971308984242       0.21507569065817       0.51127222874762
C        -0.94708305034134       1.47441235375888       0.16821079123557
C        -0.71028171883284      -0.91867024790468      -0.32361964748859
C         1.25111599337316       0.47339623332047       0.17126211998213
C        -2.45693145124615       1.32544034881851       0.28629727464718
C        -2.21934482743766      -1.10823313250085      -0.21263621577941
C        -2.96136202123368       0.17509970540249      -0.58155839752706
C        -0.33964638398380      -0.08377683713090       1.96226771674417
C         2.21938235460974      -0.64530899430950       0.54305935631308
C         3.61291128881617      -0.29527133868899       0.00329460910461
C         4.63145878775148      -1.36270037709388       0.39503423840160
H        -0.67501274338105       1.73508922126785      -0.85777692338594
H        -0.59163718471185       2.25746706661490       0.83780107391149
H        -0.19257030700127      -1.82492365888084      -0.00417836134830
H        -0.43723547019247      -0.70030823875813      -1.35980919633605
H         1.53270357285190       1.39368592506078       0.68499643902291
H         1.28576051371144       0.65790869397130      -0.90601429958431
H        -2.90164042223820       2.26727398716217      -0.04431361773651
H        -2.74921014747787       1.17004535003548       1.32787842926755
H        -2.49181069179518      -1.42362746755670       0.79803672127523
H        -2.49880577225312      -1.91293350134483      -0.89775666754664
H        -4.03426407013242       0.03644348926895      -0.43092231902419
H        -2.79165604295680       0.40691312192907      -1.63794939197037
H        -1.38837290010418      -0.22625315682639       2.20740001975643
H         0.21631292690639      -0.98695383839396       2.19895245869433
H         0.05735434985109       0.75992828581132       2.52783080362794
H         1.89572694525279      -1.60131416474572       0.12033478544041
H         2.27918737536122      -0.75025385511366       1.62859932471128
H         3.92320981929294       0.67021041926375       0.41151144187324
H         3.57052606591128      -0.20601731931628      -1.08765293471979
H         4.33165582513499      -2.34172170473412       0.01760109221239
H         4.72177817978712      -1.41987586391683       1.48003204588159
H         5.60629015482045      -1.11204416832263      -0.02241733540394
N         1.03457571745081       2.56401885194721       2.97511530541630
S         2.50675426036265       1.97801008766362       3.15531943995068
S         0.88151563912087       3.95195581014132       2.21771633119195
F         3.09061613283027       2.75678389004177       4.42873582434783
F         1.31625532608757       3.55640897965826       0.67308216020497
O         2.34815189063263       0.62240859587211       3.59286392835747
O         3.43321975228455       2.24075434547428       2.09882982356103
O         1.76196638648701       5.00824626577886       2.57181090050936
O        -0.52069480542622       4.19873328911740       2.09184319766078
