49
C15H32ClN optimized with DFTB in AMS.
N        -1.02800766651271       0.76007929888664      -0.15688825576211
C        -1.47294872230477       1.76923777425884       0.86705542639068
C        -2.05423838145831       0.68650766113902      -1.24913494338303
C         0.24382802785171       1.25610596478265      -0.79832433893689
C        -0.82999188941251      -0.57537574124589       0.50964748516185
C        -2.85982724162234       1.47655707777121       1.41926096706356
C        -3.45743006721993       0.37289929852727      -0.74072741667879
C        -3.89829435071881       1.39832047260933       0.30279577636492
C         1.43912084512745       1.40069764996269       0.13958304200862
C        -0.15989806891862      -1.63986744406494      -0.35254899130132
C         2.67002507484452       1.82042765378210      -0.66979658501182
C        -0.12224924310635      -2.95465287473750       0.43702790070187
C         3.88315447472152       1.99054364456453       0.25011176836322
C         0.58196333198734      -4.05590156810621      -0.36062367069593
C         5.12619134183324       2.39946219784588      -0.53727878411731
C         0.62952047135650      -5.36430189771468       0.42646273030599
H        -1.45732050906453       2.74761986310744       0.37863123379946
H        -0.74348959058041       1.74404402272895       1.68523534891630
H        -1.72759410344454      -0.07036230271684      -1.96525767116846
H        -2.05617173967761       1.65993473770772      -1.74813273867775
H         0.00597075093404       2.22767930648778      -1.24201821547619
H         0.48011066622762       0.56481033937962      -1.61175355061983
H        -1.81415077322741      -0.92904938452133       0.81944097483798
H        -0.24007667591125      -0.39007883802063       1.41663889176108
H        -3.11224700354412       2.28890865023990       2.10527551267250
H        -2.85166900600814       0.54907568211078       1.99663416294357
H        -3.50003060397598      -0.63556820556132      -0.32164165801158
H        -4.13018801749070       0.40133694057933      -1.60237841322734
H        -4.00575658304779       2.37933345468644      -0.17208499764122
H        -4.86903820520073       1.11058790821945       0.71322243473053
H         1.23431852927130       2.15341331735710       0.90270455828094
H         1.64816461319924       0.46242848291194       0.65396546479166
H        -0.70444867656464      -1.79403650163709      -1.28998994471199
H         0.86450297839877      -1.34986229588147      -0.59914528353859
H         2.46606535408353       2.76378332626858      -1.18951033928248
H         2.88765889480311       1.06086359071221      -1.42962901212425
H         0.40521164955227      -2.79102940585994       1.38158240212561
H        -1.14481264629870      -3.26799609508973       0.67288911141200
H         4.07517678893193       1.04808913414025       0.77237199079604
H         3.66136882258984       2.75158982208797       1.00453344219177
H         1.60227131963058      -3.73655702215119      -0.59841487687526
H         0.05297239401660      -4.21734138214534      -1.30659518587984
H         5.97709031526346       2.49824157067603       0.13674029069264
H         5.36638208020769       1.64883822138453      -1.29205041687331
H         4.96632730022469       3.35568293062565      -1.03797366210742
H         1.14651401587262      -6.12971077116524      -0.15256104879570
H         1.15996469496814      -5.22305095371188       1.36879905765762
H        -0.37973320001257      -5.71568122903071       0.64541168962176
Cl        0.51994823362574       0.68305051452013       3.14834404690625
