57
C15H28F6N2O4S2 optimized with DFTB in AMS.
N        -2.23516779321311       0.03129988513597       0.07633416663850
C        -3.00749750032403       0.54270134590674      -1.10522556905616
C        -2.54428485863135      -1.43047191094884       0.27176701416355
C        -0.77519459401137       0.18091187634777      -0.27512301404457
C        -2.57684744185349       0.78200588105301       1.33553111617205
C        -4.50847561774195       0.30287257669055      -0.99607618103396
C        -4.03535696319568      -1.72156342763726       0.37382653139685
C        -4.79771646923954      -1.18769493547564      -0.83444679928743
C         0.20262240931789      -0.24659153077886       0.81492354087272
C        -2.19708713429220       2.25290046213999       1.33794730507692
C         1.64065617394194       0.02402833963273       0.36057701921962
C         2.62470931833301      -0.37453196000305       1.46533783811650
C         4.07252306522496      -0.10177403757745       1.04780988788044
C         5.04967459737714      -0.49632419418555       2.15389717541903
H        -2.61695469607103       0.02263279507528      -1.98474998359206
H        -2.79130769524415       1.60781093557180      -1.20722993913086
H        -2.04624029800631      -1.75297586325183       1.18668258941522
H        -2.11293758502457      -1.96002183253545      -0.58248304935129
H        -0.61778085365617       1.23135417737483      -0.53289055255904
H        -0.61059799463896      -0.41712704977290      -1.17594127617988
H        -3.65028592067629       0.68180953012043       1.49080950133433
H        -2.07570001617660       0.26417289171443       2.15247210205403
H        -4.96639464119147       0.68016168057360      -1.91428930836074
H        -4.93011459263287       0.86385112009591      -0.15858381126599
H        -4.44435535207008      -1.29495930613088       1.29199346866361
H        -4.14593219405712      -2.80660671996550       0.43808188123814
H        -5.86948498727229      -1.34300474081351      -0.69372082998367
H        -4.49001421102824      -1.72145315724938      -1.73995322652163
H         0.01557869047748       0.30476413121916       1.73721822830335
H         0.08873860699093      -1.31002702424939       1.03131275055053
H        -1.12176057954886       2.40043349346573       1.25775377600931
H        -2.69528284003431       2.80884246924685       0.54472281139865
H        -2.52104736084671       2.65889579068717       2.29614542149578
H         1.75840832675464       1.08821861973990       0.12751418687419
H         1.85398621392904      -0.54476008049098      -0.55113988804735
H         2.50190763358540      -1.43835469703742       1.69221898002260
H         2.39255640534468       0.18852909946646       2.37491716682809
H         4.30286067761798      -0.66708326852369       0.13804571279628
H         4.19144267765538       0.96289336033516       0.81848950301232
H         4.95880217161686      -1.55893374257038       2.38207752704877
H         6.07345065258602      -0.29433921357423       1.83835401560214
H         4.84671123812068       0.07178923881590       3.06244201809899
N        -2.40880101442046      -1.77225990076464       5.31892656764290
S        -3.78985488773862      -1.67327134794917       4.51473589600848
S        -1.06045046460758      -1.40895618860510       4.55053615345631
C        -4.00497841412414      -3.31570441987494       3.63907584056283
C        -0.77346386181776       0.42689542892716       4.81261966815556
O        -4.85533055378345      -1.64872160268921       5.47498207000091
O        -3.83554943262423      -0.71377502520709       3.42123853723042
O        -1.09813501138454      -1.51736388842998       3.09700977326134
O         0.03831797975244      -2.02532290833574       5.23768606515372
F        -5.18791715485278      -3.32036972583561       3.03176065459825
F        -3.95193101206865      -4.32554590646801       4.48596644435701
F        -3.07227663154042      -3.48898782128126       2.70588322106155
F         0.31973296593807       0.78362033963542       4.13774770309170
F        -0.60330109648553       0.71786358840934       6.08699467298787
F        -1.78804221383770       1.14596128033167       4.33952639814320
