42
C10H22F2N2O4S2 optimized with ADF in AMS.
N        -1.24902399234863      -0.04984323122561      -0.04631440794623
C        -1.55004671586706      -1.06841976471858      -1.13503586142204
C        -2.29426696554563      -0.37398359556571       1.00790663012151
C         0.14494503317724      -0.20684464782721       0.52968517598350
C        -3.07508274412192      -1.18318084794900      -1.16313431483233
C        -3.56372540442837      -0.69941976690034       0.22771682015617
C        -1.46105287130912       1.33469002479218      -0.56126973830465
C         1.26522418701640      -0.16135821669367      -0.49222268744442
C         2.61616941542247      -0.28825680031707       0.21948867683413
C         3.77043688807877      -0.47619500493720      -0.76314299151809
C         5.11512486178887      -0.60031541595220      -0.05135385405283
H        -1.08161515770826      -2.01224096253842      -0.81264776881364
H        -1.09382662320867      -0.72866630541881      -2.07362313513922
H        -2.36972030234592       0.47278595286250       1.70435392862183
H        -1.92656798733995      -1.25915379170464       1.54111592815488
H         0.14671883200000      -1.17610414494699       1.04802259663916
H         0.24988884692466       0.58943513627340       1.28534124386770
H        -3.34862685815271      -2.23264524828182      -1.33995734920463
H        -3.51609724967301      -0.57639147715068      -1.96798153422279
H        -4.22186846886056       0.17758906227885       0.13637833826315
H        -4.11581067264637      -1.48770530257454       0.75698556930625
H        -0.75411397581692       1.52653176365804      -1.37553276849675
H        -2.48807668424375       1.42394244812044      -0.93377549757073
H        -1.29629544775239       2.04588081096288       0.25824005043905
H         1.16224057447405      -1.00736387531213      -1.19108731365393
H         1.24849363879541       0.77560513269369      -1.07561209683812
H         2.58616871421060      -1.15762170236426       0.89938513868165
H         2.79414682452774       0.60790201003427       0.84364002182697
H         3.79609298932110       0.37074459467492      -1.47384436052347
H         3.57654800876833      -1.38932517579630      -1.35270879571673
H         5.34616567000995       0.30990668491281       0.52561435262755
H         5.93410933508623      -0.76395389473215      -0.76805135684101
H         5.10327038688055      -1.45114772882710       0.64817996177778
N        -0.32186148806307      -3.72710799002287       0.13371322551008
S        -1.25509930236068      -4.09357200213574       1.38367705901194
S         1.27016600730745      -4.01424920536439       0.12595167266761
F        -0.78797882246427      -2.94847579787480       2.53360719495539
F         1.37087964213097      -5.64151008850820      -0.00191342289957
O        -2.59874947387433      -3.64850145352426       1.03878484155163
O        -1.02613831779196      -5.35940583518779       2.04123832958221
O         1.95666919421212      -3.69034279360595       1.36341548872033
O         1.76597902679062      -3.50184579070556      -1.13925668455928
