38
C10H22BF4N optimized with DFTB in AMS.
N        -0.13032088685054       0.30212766396290      -0.25325506085623
C        -1.42381172968121      -0.19948428972573      -0.81337718439852
C        -0.51885649819875       0.83129398771785       1.09526935889463
C        -2.17380761224335      -0.80515058227756       0.37197783191179
C        -1.56563093932652      -0.14468548599429       1.62049137872477
C         0.41213735857237       1.39765829128372      -1.12448283527638
C         0.84344649052182      -0.83222473631921      -0.07159489103609
C         1.73047511894620       1.98312754105453      -0.62784834926305
C         1.44142586152441      -1.37920099218168      -1.36467743372725
C         2.13428529654442       3.16925479017961      -1.49939785287335
C         2.36883639617311      -2.54376471135436      -1.01775813328888
H        -1.96555897208579       0.65690314417400      -1.22156824432392
H        -1.22798538639969      -0.91231929324317      -1.61401459788177
H         0.36725390671982       0.89922884559166       1.72813772627897
H        -0.94751865936531       1.82572088744587       0.95075248440280
H        -3.24156677567196      -0.59675382318882       0.28561057443166
H        -2.04194919501588      -1.88849115520099       0.40215050578446
H        -1.10731597559386      -0.89354973907164       2.26888617692555
H        -2.32082129087832       0.38901830941598       2.19974128619010
H         0.52174558687693       0.98501212431537      -2.13078073227071
H        -0.35710125544381       2.17569397739410      -1.15853417093822
H         1.64650427525343      -0.46928630592634       0.57273461811583
H         0.30763189975957      -1.62380190003513       0.45630722642318
H         1.63436254815945       2.31350590713053       0.40731921358033
H         2.52112150586506       1.23300688236586      -0.66369387479941
H         2.03076106626475      -0.60787324907087      -1.86517845332150
H         0.65987075593233      -1.71686634426724      -2.05336937534228
H         2.25777569060916       2.86255244720427      -2.53951601343286
H         1.38502147416416       3.96161705096691      -1.45502167939425
H         3.08188351014564       3.56281899939028      -1.13418230427727
H         3.15658841465891      -2.19603763373535      -0.34966161358678
H         1.81505977085390      -3.34557124466346      -0.52748566472643
H         2.82138414473617      -2.93506154501303      -1.92823321247699
B         3.60381740373900       0.72052901717513       1.68944927615376
F         2.23194916928347       0.71607385840391       2.14040412814785
F         3.88354793567529       1.99086286767627       1.19859664575258
F         3.64926608636258      -0.21104353359389       0.61246676150083
F         4.43455114521302       0.34106871601402       2.70425465677307
