60
C16H34F2N2O4S2 optimized with DFTB in AMS.
N         1.02175407783907       1.16602753029956      -0.44431545092693
C         0.58537164711287       2.18036060078306      -1.46374776163174
C         2.09466514040797       1.86667660557449       0.35707658634200
C        -0.10722983386777       0.79017894612059       0.46456285473187
C         1.57532103680587      -0.02854098783423      -1.17887086909599
C         1.85393595636769       2.94092735509179      -1.81758188629974
C         2.60031969888293       3.03785278701807      -0.48752032858410
C        -1.26471280225732       0.07902333483821      -0.23355145761474
C         2.06269057000237      -1.17601378019302      -0.30072027382078
C        -2.41146843496616      -0.13202878404291       0.76248920595099
C         2.58650887968918      -2.29293175607946      -1.21569625429026
C        -3.58357943835316      -0.86399388249939       0.10180786074618
C         3.34723981670125      -3.36673235636029      -0.42826420414176
C        -4.73112993073547      -1.07959378808384       1.09364246173488
C         4.76389901186910      -2.90949197362248      -0.06416138395778
C        -5.90088393942158      -1.81131082644064       0.43833404100633
C         5.51857083819111      -3.98456071683780       0.71347806136372
H         0.12499083508174       1.67522482748475      -2.31229096417495
H        -0.14623177419631       2.83952067633043      -0.98927684949033
H         1.65023508696483       2.21363770668415       1.29129752707360
H         2.88637625219934       1.15540570410019       0.58444853229192
H         0.30765298873005       0.15689155778437       1.25185639275015
H        -0.46612214239143       1.71664991735286       0.92149216708059
H         0.78805508822714      -0.37999277317110      -1.85011492419351
H         2.40311276986548       0.33701339724618      -1.78685801577235
H         2.44510369936075       2.39223678223192      -2.55358437604807
H         1.61381350638258       3.92321380027294      -2.22565801048843
H         2.37503227163939       3.98213943377433       0.01340851428169
H         3.67822422241626       2.97131222481067      -0.63401804852414
H        -1.62110887284235       0.67584617288382      -1.07749173056823
H        -0.94141519841921      -0.89217625173631      -0.61559650753621
H         2.86804627408974      -0.83611664887899       0.35207563228713
H         1.25577987725264      -1.56824934542235       0.32510144998946
H        -2.04776516037500      -0.71519567740796       1.61499290389204
H        -2.74966701096225       0.83874847496915       1.14023862733969
H         3.25094850773446      -1.86098718745951      -1.97049845847883
H         1.73861763103863      -2.74881691086220      -1.73810861694878
H        -3.94172690074155      -0.27938469206696      -0.75241754039450
H        -3.23944985648959      -1.83233999766116      -0.27681040701001
H         2.78817961713871      -3.62557921733578       0.47812639913939
H         3.40995043328962      -4.26817303073534      -1.04681661901890
H        -5.07227738191284      -0.10963685867521       1.47085835318263
H        -4.36847051770844      -1.66188442593072       1.94729493865877
H         5.31154536518895      -2.67488404216122      -0.98176973078370
H         4.72023771755719      -1.99523357070294       0.53464580448713
H        -6.28851237684836      -1.23610789777269      -0.40349193783291
H        -6.70372499249918      -1.95285761352613       1.16175821994892
H        -5.58419928763802      -2.78948879556949       0.07426068791866
H         5.59693695706304      -4.90068243974869       0.12569755242649
H         6.52354335053483      -3.63143652792170       0.94337516031684
H         5.00661995654631      -4.21477004657977       1.64951904075768
N         6.45526503406117       0.11142798132459      -2.29370799125220
S         7.64433512374875       0.03207048427549      -1.20805509099790
S         5.14681535614778       0.81179064532205      -1.81196318459663
F         7.07392963875044      -1.04907738680934      -0.14148133614648
F         5.48006555894156       2.41609317279987      -1.73404141359459
O         8.74268469384371      -0.62227089936219      -1.82876577918427
O         7.85997143834581       1.21058402345820      -0.43861126487881
O         4.66782041435394       0.52654975102343      -0.47949786414820
O         4.16693246986175       0.74499134573671      -2.86481951257203
