61
C17H29F6N3O4S2 optimized with ForceField in AMS.
N         3.07290958292367       0.92953000289980       0.01228452129697
N         2.93258965204378      -1.28460762862116       0.17867902564001
C         1.46419031582887       2.78587241966518      -0.23776017598222
C         2.83056006576997       2.34052450307804       0.30610558799784
C         1.02704994262422      -2.63037425978502       0.99824640431352
C         2.52961836308145      -2.59913164515119       0.67643415617270
C         0.30258004994221       2.10070439628773       0.49931617436949
C         0.16613785024533      -2.30322393484583      -0.23250723010964
C        -1.05483517689169       2.54426689585211      -0.05645909405778
C        -1.32578420073466      -2.29372483638942       0.11834655098159
C         2.83194672267138      -0.11098920631708       0.83363588888914
C         3.35010026016834       0.39627222893991      -1.19488977898188
C         3.27024621227915      -0.97723991742718      -1.08994025439902
C        -2.20038741355336       1.86290763754087       0.70319214584610
C        -2.16119665977814      -1.79133162539965      -1.06643972509978
C        -3.55213015796379       2.17221005636928       0.06861594852379
C        -3.64568256650822      -1.75080061691999      -0.72105563053269
H         1.37651691255361       3.88711316436421      -0.11380704793768
H         1.40833110306391       2.55923531429271      -1.32509062526387
H         0.81240551251502      -1.90182035572133       1.81040493120273
H         0.76440854037426      -3.64340051907827       1.37297340013579
H         3.63115242750021       2.95366844431479      -0.16124626822731
H         2.87402865029159       2.51492801941782       1.40387938914890
H         3.10853572344042      -2.83408090681434       1.59533228524213
H         2.76036254585084      -3.38147193807800      -0.07979082645389
H         0.35730140179722       2.34619080876992       1.58273151575731
H         0.38454832876342       0.99943138913119       0.38314913960008
H         0.35454506844519      -3.05682022170082      -1.02855697710561
H         0.44475243659472      -1.30233375248803      -0.62618335581136
H        -1.15512909946274       3.64782941401988       0.04056944545415
H        -1.11142885401742       2.27580264869861      -1.13474293082423
H        -1.49519503897230      -1.62802957678041       0.99296525639329
H        -1.64507832670924      -3.32321995447522       0.39306988919407
H         2.50145025562135      -0.01206787796637       1.86028557632822
H         3.53276534020085       0.96404453304600      -2.09781226398440
H         3.37401746188136      -1.69207229485768      -1.89587394449060
H        -2.05254714920240       0.76269054158341       0.70192056108380
H        -2.20775408026548       2.21146614239766       1.75899282956506
H        -2.01324812636332      -2.46100257644656      -1.94152596182389
H        -1.83446200560319      -0.76650330366923      -1.34921463697625
H        -3.74438420776443       3.26607925849311       0.08372801741925
H        -3.57803860186194       1.80607299334980      -0.98010063546487
H        -4.35454266157067       1.66034677969460       0.64094128053024
H        -4.21748292482719      -1.36122940566166      -1.58978435043558
H        -3.82407502323020      -1.08300936939142       0.14861439077847
H        -4.01107640408195      -2.77169158835530      -0.48240889336664
N        -9.56359513236776      -1.06236422686176      -1.63974354049979
S        -9.34378514452254       0.18153208749970      -2.68325871473996
S        -8.46423192858972      -2.26199909279902      -1.44537590680573
C       -10.07014435037481      -0.23657379004235      -4.25486142710808
C        -7.47192843623814      -1.91688696637196      -0.00808982095195
O       -10.02856383146394       1.40468743797032      -2.14284951505405
O        -7.87836920301980       0.46567686625779      -2.86658688842623
O        -7.57620037475638      -2.37395287974968      -2.65399657483473
O        -9.18766249053385      -3.56131241638944      -1.23244927644153
F        -9.91914723470853       0.82249828032589      -5.12937872270090
F       -11.41587911766721      -0.50180794975822      -4.08523046880064
F        -9.44638872187616      -1.35374688103724      -4.77669253933136
F        -6.60521327106393      -2.96891030489290       0.21581316613426
F        -8.29178859542528      -1.75877604254978       1.09294528997981
F        -6.74710579960195      -0.75749664146681      -0.20856904835456
