37
C11H18F6NP optimized with ForceField in AMS.
N         2.36702707645060       0.03176998326391      -0.52137639176190
C        -1.44774058969814       0.06549191839704      -0.68169723870084
C        -0.04599837216902       0.02036542909963      -0.06478980007575
C        -2.52655363792246      -0.01436804338453       0.40354323371850
C         1.03907757325633       0.08091074194815      -1.14387860406259
C        -3.92894711189914       0.00847499751127      -0.21418178950406
C        -5.00545740544304      -0.05951239264342       0.86502286813567
C         2.95954683131413      -1.17781383281491      -0.28141857778421
C         2.98483236482624       1.19374445789618      -0.14759056041209
C         4.20508110447085      -1.24446802574310       0.34771309670955
C         4.23065823545296       1.16261628377608       0.48371910581691
C         4.84139878383147      -0.06543987697720       0.73227961887294
H        -1.56901422879302      -0.78757955163056      -1.38543834945378
H        -1.56947876445043       1.01454750162364      -1.24848580560099
H         0.08178592490528       0.88090221694229       0.62818330832742
H         0.07332947309968      -0.91964973296930       0.51754321596528
H        -2.39620120249347      -0.95393550580640       0.98492508821618
H        -2.41440925144258       0.84847439419960       1.09695536324663
H         0.92754797482219       1.01491856203715      -1.73930673939483
H         0.91559974209215      -0.76906029530442      -1.85220973533451
H        -4.06543425269287       0.94255160724053      -0.80188213131662
H        -4.05059616125527      -0.85854168523009      -0.89976349114130
H        -4.92207624137206       0.81247386227430       1.54831582977148
H        -6.00917459432307      -0.04478977879823       0.39074132441274
H        -4.90366664044962      -0.99655278706159       1.45312375442610
H         2.46577715296552      -2.09939654762894      -0.56672951503415
H         2.51102215826550       2.15185121055407      -0.32648687829364
H         4.66820036972259      -2.20347068090469       0.54114645816025
H         4.71364578281447       2.08368412794022       0.78354447197557
H         5.80330809271720      -0.10361344461871       1.22694265769989
P        -2.24722240938958       0.96447164445135      -5.16581351950096
F        -1.19975467917518       0.60893348780590      -3.85290143504818
F        -2.99526204119527       2.23772764295100      -4.28707331083807
F        -1.06499019245873       2.06996340886434      -5.74226004885220
F        -3.19284368741002       1.29554002100521      -6.56185593160034
F        -1.53384250615544      -0.34848146259623      -6.01383000768381
F        -3.45170391431876      -0.08675446076952      -4.53561189606031
