32
C10H19ClN2 optimized with DFTB in AMS.
N         1.88811621276761      -0.87448766668175      -0.29806485833427
N         3.28752666039804       0.74336753596861      -0.01572546135339
C        -0.40939734092701      -1.80581956261924      -0.24962987831034
C        -1.08633347258043      -0.43444801804222      -0.28717165405218
C         0.95649140376649      -1.79783083411850      -0.94006801045759
C        -2.45887700360344      -0.47410327398855       0.38871200249075
C        -3.11786618531656       0.90853026811063       0.35682747822171
C         2.53446770774256       0.11279570349104      -0.92235867541784
C         2.15711918427959      -0.80506102306607       1.04876341035200
C        -4.48686553398993       0.89070812034671       1.03432149897584
C         3.02603321771496       0.22011267408441       1.22470779002576
C         3.96028972309386       2.00103400899333      -0.28588110833037
H        -0.29462216796440      -2.14224891401464       0.78575860105669
H        -1.02874879525085      -2.54317575058116      -0.77056040479005
H        -1.19621170155894      -0.11195215872694      -1.32660100780243
H        -0.45132531123316       0.29890813526867       0.21648616485694
H         0.85650556803495      -1.48081968696680      -1.98134550996291
H         1.39829283191950      -2.80002767868439      -0.91443239875509
H        -3.10176447085354      -1.20013590500318      -0.12237951275164
H        -2.34608185547004      -0.80316767774823       1.42842200963228
H        -2.46966551729152       1.63045048472079       0.86347899542511
H        -3.22987433962305       1.23256527294484      -0.68265568817442
H         2.59493344663606       0.24275641260277      -1.98653913961076
H         1.72222197744396      -1.48616099796586       1.75818867978351
H         3.48508753642638       0.60896374645113       2.11659326813166
H        -4.39398662990438       0.59010140737348       2.07933281395202
H        -4.93475835740868       1.88408587738859       0.99796050887223
H        -5.15517744200585       0.19016944799542       0.53078758483542
H         4.44737367444441       2.34963782076761       0.62208782933809
H         4.69647197068686       1.86161544610491      -1.07735886873712
H         3.19514506625361       2.71186205071153      -0.61196977302300
Cl        0.90328834007293       2.02394662298307      -1.29846797498659
