55
C17H18F18NP optimized with ForceField in AMS.
N         2.34412118350797       0.03839915433698      -0.52931845222168
C        -1.46773287213344       0.15007973377839      -0.76077840759425
C        -0.07520960448438       0.11125655420156      -0.12439309016263
C        -2.55644480117957       0.10501740235316       0.31840969804610
C         1.03107845640266       0.11714973402149      -1.18166706360597
C        -3.95553805169379       0.13140449543209      -0.30589214379397
C        -5.03740008183505       0.06634061589778       0.76839285620063
C         2.90187353485031      -1.18426183227553      -0.27151430112040
C         2.98223761385735       1.18638967483149      -0.14588953470571
C         4.13462177698693      -1.27845054913953       0.37883037905568
C         4.21663399651146       1.12762935400088       0.50579608250403
C         4.79412629173610      -0.11371505823700       0.76774394092248
H        -1.58676860597696      -0.72242066095759      -1.44048410607077
H        -1.57479267725996       1.08271406748424      -1.35742257495303
H         0.05309767156476       0.99610872663400       0.53659546174519
H         0.02009191971449      -0.80970651112075       0.49004102273176
H        -2.44019626137697      -0.82428193236397       0.91928316912937
H        -2.43957090683650       0.97940579041455       0.99640257329195
H         0.96068123758548       1.04261424625430      -1.79610182502839
H         0.89478605815353      -0.74240721849648      -1.87569461946820
H        -4.08624112458581       1.06639685341926      -0.89318350394641
H        -4.07736278003120      -0.73568186744871      -0.99121375900218
H        -4.95055088801603       0.93387396703703       1.45687918939525
H        -6.03897860230412       0.09115658066176       0.28978333794386
H        -4.94571116410452      -0.87491711157858       1.35145802107325
H         2.39062726281876      -2.09498713084747      -0.56046770303723
H         2.53501025211843       2.15495365264091      -0.33612995405149
H         4.57224595596803      -2.24728245673248       0.58187851468626
H         4.71863263162764       2.03769125557130       0.80776159492947
H         5.74928139449386      -0.17302649667104       1.27330612580982
P         0.07299005699081       0.57450018248323       5.74737316311256
F        -1.41552540080238       0.98217815509347       4.97739413167362
F         1.37117532094867       1.31291003576677       4.88779638018320
F        -1.23010182496208       0.04287315733551       6.73678324939778
C        -0.01392411086843       2.43945617393851       6.25211715684218
C         0.00308504299302      -0.55641801595338       4.17871432108539
C         1.05205180442590      -0.51732507385068       6.98844914101096
C        -1.11687542960160       2.81310244027237       7.26615342527113
C         1.25728588607028      -1.40834056099998       3.85562145494763
C         1.07805947242320      -0.07839639713094       8.46427129515806
F        -0.24287704458136       3.20477732337708       5.11422691458386
F         1.19967735708303       2.85651482670400       6.77631196600475
F        -0.22642440522592       0.22993945966935       3.05554349072686
F        -1.06384251485400      -1.43232569441014       4.31072170226054
F         2.36583776821440      -0.58392413943865       6.56046590366963
F         0.52671778951405      -1.79909632957411       6.96945368635931
F        -1.09489531313358       4.18180401463103       7.46794102733242
F        -0.90836193124157       2.20389212069065       8.48372603423670
F        -2.37265299100409       2.47160427406663       6.79885714395838
F         1.09519313254953      -1.97879336313233       2.60568223606503
F         2.41058602826310      -0.64785370929948       3.82133651444672
F         1.41872199184848      -2.44208202015468       4.75457923405168
F         1.55355924242477       1.20716491509615       8.60472573615475
F         1.93135768798660      -0.91691196630515       9.15986625291812
F        -0.17345733724030      -0.18751471947729       9.04177628284589
