35
C11H20N2O2 optimized with ForceField in AMS.
N         1.02494311864505       0.36181473083665       0.46627731763429
N        -1.00305271485988       0.35570417246419      -0.44455317371499
C         2.28672171818017      -0.10788675435715       1.03427964125730
C        -2.25128004436372      -0.12079159180240      -1.03689615274283
C         0.01605047931369      -0.40183246879342       0.00477273147186
C         3.44640748274035       0.10369596775452       0.05487851913682
C        -3.42496832659798       0.05803938148627      -0.06747744315657
C         0.63093580710113       1.64165679140357       0.30625710239766
C        -0.62749241201230       1.63788965186230      -0.26061429428149
C         3.27076987589777      -0.71605917042477      -1.22333470414802
C        -3.24623860165270      -0.77068134941343       1.20470600051420
H         2.21225176646051      -1.18811229864909       1.28888002133208
H         2.49126010979148       0.44370299120188       1.97696789407100
H        -2.15908233454443      -1.19500853209198      -1.31094537009909
H        -2.45182843233304       0.44428361148386      -1.97292587347656
H         0.02465012027721      -1.48484416043874      -0.00667582925510
H         3.53257977853897       1.18115285106821      -0.20347194073222
H         4.39151069006549      -0.20675512539196       0.55065834919431
H        -3.53428403108590       1.13096349890499       0.20082561874251
H        -4.35888048076916      -0.26512067177147      -0.57628791948712
H         1.21153139583601       2.51242169091278       0.58209610607507
H        -1.21812853951217       2.50516795539503      -0.52619419787947
H         2.39840374635649      -0.34774127171068      -1.80335549541855
H         3.12045686217926      -1.78924360022423      -0.97847977918413
H         4.17749136765654      -0.62050822056027      -1.85679685850350
H        -2.38414255010634      -0.39472828964762       1.79537936960446
H        -3.07754526225280      -1.83903247154126       0.95102319148759
H        -4.15924078068179      -0.69456151727207       1.83168143394393
C         0.35670871389136      -0.18134754360744       4.52488148397440
C         1.22594395094610      -1.35442318225979       4.20220955320455
O         2.43200287050059      -1.28504861417000       4.37546753679599
O         0.73531433732865      -2.38201848589481       3.76281968645209
H         0.44264931120933       0.05837899711808       5.60569497104184
H         0.67978713992965       0.69677732926886       3.92725091936618
H        -0.70603600407359      -0.40459807493860       4.29020043828153
