54
C14H30F2N2O4S2 optimized with ForceField in AMS.
N        -0.06641046197856       1.47809961698531      -0.00602082802925
C         0.52448129944130       2.41409161247593       1.00018890419552
C        -0.72925158973250       2.36264371105186      -1.01284215342007
C         1.01734452611818       0.68915461058405      -0.67719998108421
C        -1.08180010738132       0.60427450421636       0.66684269833373
C         0.00295924998327       3.80979231442838       0.71621199635079
C        -0.28210113096010       3.78862098209604      -0.75824810231526
C         1.76910642602087      -0.29567977459026       0.25054233099675
C        -1.77760391605809      -0.41763672978363      -0.26441687984895
C         2.98034008499024      -0.89758264187975      -0.47317202311553
C        -2.87691051566657      -1.17231149587497       0.49480261133095
C         3.71664608219212      -1.90753744813180       0.41390971033585
C        -3.59550868150642      -2.17633290149079      -0.41345996672094
C         4.90675637287486      -2.51789519309218      -0.32131949205507
C        -4.66565616244940      -2.94641169891733       0.35611996889843
H         1.63526155760833       2.46518957561635       0.92870609440105
H         0.29115630001784       2.13463545104133       2.05313026588137
H        -1.83912284835425       2.35340331065840      -0.91540740377390
H        -0.50257063167291       2.07992553777008      -2.06630581606467
H         1.76046144073401       1.38996658020108      -1.12505107418891
H         0.60642872455713       0.11221367915395      -1.53480853684812
H        -1.86790215085558       1.24342646182107       1.13304653153189
H        -0.61731345971595       0.04823538438280       1.51090397064793
H         0.74745674114036       4.59317194688955       0.97815581129304
H        -0.94007099062595       3.98331473466069       1.28104849044114
H        -1.06749279175738       4.52588505325460      -1.03439439984885
H         0.65027532038019       4.00066047696189      -1.32751724640675
H         1.09328529586844      -1.12450054453667       0.54866885968868
H         2.11786398274612       0.21810370978413       1.17103707315006
H        -1.04175749073658      -1.16014317994324      -0.63671954715211
H        -2.22984690450625       0.09499109606433      -1.13933367830604
H         3.68138339635116      -0.08148371582347      -0.75639179126542
H         2.63608766131030      -1.40656126351065      -1.40050830664727
H        -3.61866890766716      -0.44421257584782       0.89119447590134
H        -2.42003299121158      -1.71409985395293       1.35236705402076
H         3.02298426649597      -2.72397360175303       0.71128330779586
H         4.08285873829483      -1.40157571240490       1.33376353508074
H        -2.86168011029767      -2.90080256612104      -0.82899345089395
H        -4.07837651987817      -1.63815562259948      -1.25809088183091
H         5.43781704582097      -3.22471755017257       0.35068858415908
H         4.56280542657402      -3.07200505118543      -1.22069887700111
H         5.61565726647946      -1.72300983377789      -0.63427449824392
H        -5.17141176018145      -3.66244705436644      -0.32556637744683
H        -4.20580123944320      -3.51686605852176       1.19146649834379
H        -5.42671664284355      -2.24757097296319       0.76482755367363
N         9.35371487609074       1.17562284366175       1.46787979429144
S         8.27727840289091       2.40813687221814       1.44741070308399
S         9.24040574018188      -0.06550079260842       0.40755510045736
F         6.81506099518731       1.88057124063757       2.06921539459734
F         9.74226206546480       0.44752529929440      -1.10491713998487
O         8.79396135464161       3.54215238253474       2.28582290694491
O         8.06328605184992       2.87799320550244       0.03610416124438
O         7.81483814536592      -0.52968469936140       0.31492401997842
O        10.11351418780752      -1.19971658483615       0.86257673964271
