34
C12H19NO2 optimized with ADF in AMS.
N         1.67903005907477       0.33646516533222      -0.76369135698285
C        -0.64609630558904       0.06592375525861       0.04700353253700
C        -2.12535944164966       0.25065239109446      -0.27494790029897
C         0.26352224126605       0.52893291554898      -1.08736374561465
C        -3.04074270639221      -0.21162542571864       0.85701692977703
C        -4.52083310336418      -0.02547121929605       0.53713179887706
C         2.28626691644196      -0.90065117033133      -1.10306945983936
C         2.40073923762858       1.34525252643204      -0.19465666035694
C         3.47476581678156      -1.20017481816911      -0.28979244640138
C         3.64586545145687       1.13723019851450       0.32148004031180
C         4.15115478729785      -0.19804123043624       0.32924894242171
H        -0.44363542335357      -1.00138577358046       0.24971513040361
H        -0.38354746994327       0.61867411165510       0.96743219604440
H        -2.37228867360488      -0.30976875126350      -1.19610218076186
H        -2.32795812968708       1.31682778539913      -0.49283208094755
H         0.04418943068026      -0.03317926684501      -2.00847730021517
H         0.10635965662313       1.59947772860891      -1.30045033431591
H        -2.78827962587380       0.34376128602076       1.77879477152619
H        -2.83996502747214      -1.27712711033668       1.07120363018996
H        -4.75182583045777       1.03531358366858       0.34735958207321
H        -5.15569095718051      -0.36681964322606       1.36903018283313
H        -4.80308279783573      -0.59636956427892      -0.36196292375375
H         1.53866553137369      -1.70058508065334      -1.14836814586430
H         1.89464380341973       2.31020544756805      -0.14359742415079
H         3.80782400073937      -2.23732011286619      -0.24158953662068
H         4.19286082807001       1.95817852717854       0.78043391485652
H         5.06856022523812      -0.41831325882188       0.87967586669084
C         2.55208954289280      -1.27031139444441      -4.90212041683558
C         1.95300534199437      -1.33841235521464      -3.52095231138695
O         0.84723089684547      -1.81382754301091      -3.28912248086712
O         2.78388968421017      -0.81261515547985      -2.60093154517675
H         3.38397356674436      -1.98624937986562      -4.97930689421005
H         1.78453937747745      -1.51756683098583      -5.64510777269018
H         2.96526145424724      -0.26976130075519      -5.08824454205169
