70
C20H30F18NP optimized with DFTB in AMS.
N         2.70031941229692       0.41586904292723       0.71799539202169
C         3.61991750125429       0.49002489631300       1.90334824706367
C         2.88593323072943       1.73809927542009       0.01960795857849
C         3.10211433153885      -0.70274344875334      -0.19771289302315
C         1.28658441162505       0.28386498650165       1.20674095734160
C         3.53825517683815       1.93442607119064       2.37094404424587
C         3.33197410678666       2.74166794416789       1.08497344393199
C         3.03706960261194      -2.08208964326852       0.45151420437359
C         0.25139052568684       0.03438513309551       0.11089261476431
C         3.41541708366494      -3.15198054666953      -0.57995503718828
C        -1.15788118820700       0.14962071238737       0.70476759610541
C         3.42634397046079      -4.54509417649425       0.05594760048280
C        -2.22534714637619      -0.12514582188047      -0.35934115025918
C         3.82698052280856      -5.61093292033895      -0.96176796056254
C        -3.63155198593893      -0.01678957788544       0.22661453530549
H         4.62640615172615       0.25458708732858       1.55637296654724
H         3.31084933373570      -0.23222403610496       2.65819077671529
H         1.95321977084855       2.02065851875573      -0.46756694343332
H         3.65442495654489       1.60849287779327      -0.74097786702241
H         4.12535976918358      -0.49173291154993      -0.50942805514068
H         2.45901985312379      -0.65254416772845      -1.07861147301655
H         1.05128069657354       1.21097954821853       1.73505706137389
H         1.26207262589225      -0.53621320015953       1.92812693046226
H         4.45982317731232       2.21821371525814       2.87852538367352
H         2.70459226286074       2.07585799583676       3.06333595578009
H         2.58601384075992       3.52552328846280       1.22658679052816
H         4.26892841932999       3.20672736711328       0.77337280318343
H         2.03244366803113      -2.28766015933481       0.83265800835805
H         3.73504125906593      -2.12856909546833       1.29186709568414
H         0.37992777962462      -0.96563103829915      -0.31065103169917
H         0.36145782201491       0.75973765712931      -0.69937821160892
H         4.40551839698145      -2.92961075763996      -0.98594740027259
H         2.69881949076673      -3.12804641101566      -1.40788584775868
H        -1.29890532626064       1.15493915667124       1.11574047858337
H        -1.26516846084688      -0.56637739535538       1.52649979292337
H         2.43208794259349      -4.77337149974893       0.45599306439725
H         4.13412365336354      -4.55551597307679       0.89138429337400
H        -2.07689226217637      -1.12887940721665      -0.77100180572649
H        -2.11384567611504       0.59292701470739      -1.17841055084473
H         3.83991574059489      -6.59236924503192      -0.48771619746673
H         3.11929812696534      -5.63375026249308      -1.79153640106309
H         4.82123991265905      -5.40293749164855      -1.35821081580009
H        -4.37236722227014      -0.21341198772316      -0.54804646107197
H        -3.76783679731844      -0.74117737107757       1.03052475526651
H        -3.80327349751546       0.98324618580017       0.62663692973579
P         7.21004877727028       1.12653212981267      -0.87107122754261
F         7.16022739130305       2.78862512211254      -1.07690811102215
F         5.70525271087311       1.23116011543854      -0.01827311902502
F         8.64721845046130       0.98223107491432      -1.69498602871803
C         6.22003170132245       0.98708263054624      -2.56288271675483
C         8.18703004264078       1.52162180540234       0.78282083520279
C         7.09532347185834      -0.84962842473029      -0.53445363703073
C         6.19659667675144       2.22028978820116      -3.50533845260383
C         7.38422727030071       2.07208355469709       1.99142787726582
C         8.23664157277673      -1.83487423896005      -0.90137922220858
F         4.90703106628426       0.69946699077264      -2.34628739082823
F         6.72772213675049      -0.03323074426161      -3.27124666072587
F         9.12216311003376       2.44056154884286       0.50002352409462
F         8.83338154551376       0.43033095807890       1.23083944646909
F         6.00344165838694      -1.32794793725150      -1.18661016939399
F         6.82257237288759      -1.02185899013134       0.77983107416343
F         5.67395707583210       1.87462453595488      -4.68615348607657
F         7.40500709882623       2.71552331993505      -3.72358755046537
F         5.42085569307848       3.17893691969273      -2.99524758268193
F         8.19975415161692       2.48696013868013       2.95674607309521
F         6.60095907552714       3.09833250314312       1.65483941248957
F         6.59370748227171       1.12482120834405       2.51657276798829
F         7.89583315032883      -3.07394494157498      -0.52562609447438
F         9.38318805216313      -1.53098105902528      -0.30978123075189
F         8.43317723281066      -1.84997184974943      -2.21532923620754
