45
C11H20F6N2O4S2 optimized with ADF in AMS.
N        -0.23042465541401       0.25534205583348      -0.06679304635673
C        -1.39073774040715       1.01038659920189      -0.70228760167416
C        -0.32895073493238      -1.21730171056106      -0.43995014979778
C         1.04403966802489       0.87458427850964      -0.63890182367945
C        -2.75005100855052       0.43260936769535      -0.35691124488446
C        -1.69211520931168      -1.81935625148020      -0.13351145414968
C        -2.82190239225012      -1.03028289682597      -0.79084061120119
C        -0.23710276603547       0.42039122394499       1.41555270475096
C         2.33884648341737       0.12396965947175      -0.39708830555500
C         3.46612518335597       0.89106959816916      -1.09665105330841
H        -1.23003538173531       0.92644463465087      -1.78540575996845
H        -1.27825235652654       2.06349543133753      -0.40607226047989
H         0.47089280602740      -1.73426589071440       0.10788370675146
H        -0.10281836062974      -1.27009428471285      -1.51481209921289
H         1.08524953028168       1.89273812380694      -0.21905773998131
H         0.88556514783726       0.96873272391457      -1.72082822377070
H        -3.49463346173639       1.03842158463400      -0.89922305585021
H        -2.98062787204731       0.54090571852731       0.71774286648245
H        -1.85820547147120      -1.89677819392634       0.95581300417428
H        -1.66679868589859      -2.85387928904268      -0.51570657184069
H        -3.79881492620671      -1.46662852096419      -0.52952755245931
H        -2.71040098162934      -1.08250929428650      -1.88839972496421
H         0.64408362911203      -0.08487025970809       1.82825394236308
H        -0.19952680508624       1.49238171273206       1.64779465323560
H        -1.14682883696436      -0.01982525169851       1.83530818372114
H         2.56169152600616       0.01798173222419       0.67881826195603
H         2.27679035957580      -0.87879080040975      -0.84591941718985
H         3.24531753049716       0.98888704093700      -2.17088613530010
H         3.58752103736828       1.90137628897949      -0.67576758776730
H         4.41946099118616       0.35616662691895      -0.98396615600094
N         1.13033786207468       1.17272787512689      -4.04545982598954
S         0.61936161584439       2.48704830360355      -4.85400966789158
S         0.37244304820818      -0.24023460187518      -4.10270965863155
C        -0.55058396734672       3.34567185301632      -3.63808260961288
C         0.53784325259927      -0.96877157285126      -5.85969262968606
O         1.73494425584907       3.41565146805281      -4.91697508572670
O        -0.20797092310657       2.19941478978383      -6.01715453903242
O        -1.07462529131644      -0.20548926519835      -3.85136246669359
O         1.17413678482381      -1.15354154862034      -3.27750124948021
F        -0.87409133197160       4.56921343970053      -4.10670779851957
F         0.04712217188334       3.50270675996837      -2.41825866581472
F        -1.70012685377442       2.64971868532385      -3.44480141746361
F         0.61644008676732      -2.31832303460623      -5.74321257514848
F         1.65842842490877      -0.51943029193538      -6.45996892041699
F        -0.53052198880018      -0.66949236994804      -6.61711915033441
