44
C14H26N2O2 optimized with ADF in AMS.
N        -0.10139037900885       2.31193312299736      -0.49033121094189
N        -2.09016872545027       1.50382917369015      -0.28799640684065
C         1.26299840481279       2.47599042226619      -1.00317742794539
C         2.20971298187084       1.42215559961305      -0.42942257716541
C        -3.27462819063317       0.67003381904432      -0.54217179260959
C         1.81595432299457      -0.00482144461184      -0.80574612605773
C        -3.31610014339979      -0.51809403745516       0.41633212689290
C        -1.02205038506539       1.54271407821386      -1.10000454269795
C        -0.58384207041875       2.75732296959719       0.72601762408000
C        -1.84403287351743       2.24702836256476       0.85267998448844
C         2.82762443941834      -1.04915261194276      -0.34023307643531
C        -2.12127410295939      -1.45484541624527       0.23818030712072
C         2.39362981645360      -2.46509171921213      -0.71501617485039
C        -2.21313411020579      -2.68907501625913       1.13041789012212
H         1.58889842081164       3.49862286110510      -0.76029932008456
H         1.19537072180341       2.37692541097852      -2.09718137022909
H         3.21878502076129       1.64826509176107      -0.81801905579559
H         2.26026176151540       1.53125052645764       0.66984592776719
H        -4.16425573802670       1.31177324917479      -0.44740858690053
H        -3.16059800552600       0.30637807905280      -1.58026072669281
H         1.67011137017085      -0.07337020521015      -1.89859315731530
H         0.83361838346462      -0.24809740975877      -0.36496033683815
H        -4.25203234637921      -1.06665645467274       0.20810580728340
H        -3.38192560543334      -0.16880222774647       1.46461553387490
H        -0.82511908308243       0.99402765348641      -2.11650808881167
H        -0.00801547266311       3.40383901534712       1.37738882362671
H        -2.58093118460101       2.36395326632711       1.63756551491031
H         2.96004431768049      -0.97550148906268       0.75530223053464
H         3.81366332934405      -0.83048586518077      -0.78948592345574
H        -2.05851957750608      -1.73820892816482      -0.82664442240458
H        -1.19101648085263      -0.90645951655349       0.46940337870555
H         2.27831278893642      -2.56058434934409      -1.80632029415759
H         1.42064080107100      -2.70854382331301      -0.25878585448247
H         3.12516529369109      -3.21652652626755      -0.38039822756035
H        -2.23843604718166      -2.41404383658606       2.19805077230035
H        -1.35258970821301      -3.35733921713007       0.97405152453491
H        -3.12643282331316      -3.26566086284379       0.91107393173529
C        -0.68123538492835      -1.56152482636181      -4.77885802277130
C        -1.07871181736891      -0.63351408301596      -3.63138687385180
O        -0.25583874730657       0.32339588598377      -3.38638117043404
O        -2.15236398149961      -0.85857533874405      -3.01418261899650
H        -0.51589449269572      -0.97077595275273      -5.69273831121643
H         0.27193796545251      -2.05914298034787      -4.54142053631204
H        -1.45501497341657      -2.31812998487804      -4.95982848492258
