42
C10H18F6N2O4S2 optimized with DFTB in AMS.
N         0.53640102913365       0.04397592879709       0.80239668419152
C        -0.01019475195658       1.44496891506231       0.74211293214470
C        -0.05242567113159      -0.77468597443047      -0.30349391077034
C        -1.53008516115191       1.50307803603984       0.73756196333589
C        -1.57683652608724      -0.77343493079671      -0.28089292880834
C         2.02695080729145       0.16451978434212       0.60599793335021
C        -2.11512002846965       0.65229979552539      -0.38642370368057
C         0.25243609494301      -0.56340661522191       2.13174509687948
C         2.80153721531049      -1.12841175014397       0.80175860506041
H         0.39051743332918       1.90194045833347      -0.16681562120934
H         0.38020180442990       1.97031928026652       1.61332859810327
H         0.32859657499531      -1.79310157125356      -0.20458759052692
H         0.30763094100640      -0.35073034245293      -1.24537960469882
H        -1.81066668928241       2.55035018578378       0.60141806710040
H        -1.92638901703772       1.18201706882732       1.70286679602627
H        -1.94365233188337      -1.24950201447769       0.63221689965764
H        -1.91975458661625      -1.36993820644438      -1.13037682881441
H         2.18224046038725       0.54937033070865      -0.40509315983142
H         2.37462359250336       0.91055800229420       1.32430435603619
H        -3.20496275131748       0.64038384378674      -0.31471531181046
H        -1.84094321720885       1.07612783813867      -1.35826281969973
H        -0.79613798376122      -0.43142630072302       2.37943281902152
H         0.49453504750848      -1.62305724972848       2.10405661282610
H         0.85784430080985      -0.05337884284269       2.87621662331575
H         3.84578689320554      -0.91974516890787       0.57026716385340
H         2.74750164379881      -1.47301003559743       1.83262046002698
H         2.45592675469707      -1.92100336983541       0.13932514008623
N         1.04460891571208       3.23011492777107       4.98426898382405
S         2.21281065966663       2.89569394854776       3.95406900073020
S        -0.28649361244277       2.33915094287929       4.92587771987711
C         1.90695198751954       4.01050493283070       2.46748808930637
C         0.09185297187242       0.79326645067762       5.93049957446538
O         3.45693618267601       3.36645387591129       4.49026646386906
O         2.18824707580452       1.56208536086917       3.36330567439421
O        -0.65010656552713       1.81388526036066       3.61495462056239
O        -1.30209840122161       3.02093448325257       5.67479399441005
F         2.53132715460186       5.16375242987265       2.58632991342013
F         0.60958788407846       4.23757910210643       2.29767135688698
F         2.35238388792898       3.39491887191497       1.36453041729150
F        -0.94186379800525       0.49157187116951       6.69608892453495
F         1.15710949045777       0.96947358111784       6.68975432068518
F         0.31899060193300      -0.23499036953114       5.11262052737675
