34
C10H22ClN optimized with ADF in AMS.
N        -0.08526888672315       0.03631693473490      -0.06296007558168
C        -1.04596149663803       0.47475185358881      -1.14745229442241
C        -0.56364117653242      -1.28607202227303       0.53229502097568
C         1.26124561645096      -0.18155432684601      -0.73022146166926
C        -2.48492609146860       0.57912940844074      -0.67023156647525
C        -2.00339459394318      -1.22178533465009       1.00832408698082
C         0.01652735013810       1.06562770653248       1.05673962829662
C        -2.96374878501329      -0.74635885850784      -0.07857519097721
C         2.41116280743685      -0.54431840313668       0.18975719828205
C         0.60513570821665       2.39481606562288       0.63729166767554
C         3.67128684296510      -0.79833155500564      -0.63518887095590
H        -0.96614875238143      -0.28708137405130      -1.94101500499066
H        -0.67463637817839       1.42844907183815      -1.54963669818230
H         0.10724483628642      -1.49929450413062       1.40118392205062
H        -0.44415574742068      -2.02972863359199      -0.27319608823313
H         1.47953798512883       0.74280045257197      -1.29022655306794
H         1.09006085930621      -0.98146993994932      -1.47018031359928
H        -3.09918664131725       0.86754725370469      -1.54009150630177
H        -2.58840198655364       1.39325132476441       0.06687965873630
H        -2.06561051385685      -0.58899831704217       1.90976337819155
H        -2.26400692759167      -2.23877090373452       1.34567735031454
H        -1.00466516707293       1.20407108357787       1.43029101571053
H         0.58434826463170       0.55758808842010       1.87529189398856
H        -3.98516715679387      -0.63814188541645       0.32075090921980
H        -3.00877207840523      -1.50232462631322      -0.88553845151931
H         2.59626644742723       0.25971320707895       0.91799158192900
H         2.16319001924000      -1.42028119575703       0.81008869289924
H         0.61099085385921       3.03886901384910       1.53010721076242
H         1.64663928508992       2.31111849399782       0.29563539245212
H         0.01470082900234       2.91378486134181      -0.13446377321542
H         4.50356359608582      -1.06602578115916       0.03190183301867
H         3.53160048156002      -1.62834068695009      -1.34635348022959
H         3.97209654920812       0.09406467052063      -1.20817048261623
Cl        1.13454107735714      -1.07798946517014       3.30709324265329
