48
C14H28F3NO2 optimized with ForceField in AMS.
N        -0.00142327949750       0.00087241926357      -0.00244112580102
C        -0.84792507406743       0.64268148049367       1.06538623405263
C        -0.85401930830705      -0.63922898005318      -1.06668896437979
C         0.84815014432030      -1.06609394964693       0.63741332478514
C         0.84756209151101       1.06629352403700      -0.64533132963789
C        -1.91416280352716      -0.27065124209512       1.72401498129331
C        -1.92341016120981       0.27538268726817      -1.71952354503693
C         1.91525583293401      -1.72224897364489      -0.27658968233277
C         1.91784924307854       1.72133973247202       0.26608902127707
C        -2.69771959000500       0.49231302185273       2.78907742285189
C        -2.72080284814177      -0.48873231424839      -2.77433232355980
C         2.71004901937220      -2.77849236280334       0.48863591212703
C         2.71278641399458       2.77608146900128      -0.50068260981427
H        -1.35943069799901       1.54722286304882       0.66684275501817
H        -0.20421344354537       1.00957632803600       1.89321256700592
H        -1.36432999089166      -1.54344363088360      -0.66610441903423
H        -0.21443637913937      -1.00646098012675      -1.89773779994891
H         0.20676971419329      -1.89602664415900       1.00358609514005
H         1.35927237989551      -0.66743223952855       1.54204681387512
H         0.20587786671000       1.89646111818194      -1.01066104701913
H         1.35596903180170       0.66628491409758      -1.55087524898360
H        -2.64217134506027      -0.64643748309827       0.97807460531964
H        -1.43991029314130      -1.13867389544441       2.22329193043367
H        -2.64377158037215       0.65798886694631      -0.96958029313356
H        -1.44930485825657       1.13942174297471      -2.22603943956370
H         1.43930456288415      -2.22792932213103      -1.14016617347291
H         2.63715371912627      -0.97412751078275      -0.65936535344646
H         1.44489468686674       2.22838733910116       1.13046949390025
H         2.63929664329417       0.97222399648059       0.64784081805293
H        -3.46330936776022      -0.17455388281407       3.23919871349765
H        -2.01723073847398       0.84409767222287       3.59348865128632
H        -3.20945623062287       1.36637187047725       2.33716579300707
H        -3.47508235612222       0.18580953258087      -3.23217510596109
H        -2.04690273308433      -0.85986189755731      -3.57590629419424
H        -3.24935404835437      -1.34909285693343      -2.31166673210606
H         3.46352264391643      -3.23870277589975      -0.18513357544596
H         3.23949737194737      -2.31649517301038       1.34885552638148
H         2.03429632751575      -3.57829453756296       0.86012586066551
H         3.46820678705032       3.23500931534099       0.17183748449437
H         3.23990727085946       2.31311432041552      -1.36175682637969
H         2.03751929412804       3.57694516157409      -0.87068589759643
C        -5.79389814122503       3.30309545026027      -0.59341376156367
O        -5.15778442698661       3.18974208494180      -1.62946948438314
O        -7.01101194585571       3.21407398040321      -0.62053186145879
C        -5.09205958373956       3.55043023173290       0.70862056889679
F        -5.50034294583719       4.76401075766413       1.23041587755562
F        -3.71999834589866       3.57657810060099       0.52554020339536
F        -5.41005513577770       2.54380412415369       1.60112207084104
