78
C22H36F18NP optimized with ADF in AMS.
N         0.83137129689038      -0.53049940291745      -0.22520654015655
C         1.34672217961213      -1.78345031575107       0.47713657574031
C         0.62296637871404       0.56226083249459       0.80959562529573
C        -0.46361538108822      -0.86866072128456      -0.94064951420622
C         1.83823669603996      -0.03407230774427      -1.26594329717131
C         2.53865244301151      -1.57250180205178       1.39503062721554
C         0.04821903940452       1.86864724028672       0.29117613880687
C        -1.67249041356315      -1.13852352080786      -0.06009304556937
C         2.32830222494638      -1.06512230764551      -2.26781704858286
C         3.22993384354712      -2.90282821639440       1.70470655670824
C        -0.04250691162087       2.87463537324936       1.44337241614574
C        -2.86998483440810      -1.52938962769082      -0.93217198624526
C         3.08155163040720      -0.35150706014032      -3.39781419581003
C         4.34751082731722      -2.71983344817739       2.72839511999383
C        -0.58561514971920       4.22312544883182       0.98237281792743
C        -4.11876315771721      -1.81490997792868      -0.10405004841746
C         3.80985548346895      -1.33869876857286      -4.30303567927631
H         1.59008291121853      -2.49304754224058      -0.32630912080167
H         0.49495137154484      -2.18730150770839       1.04090929438878
H         1.61091610837187       0.74931593415301       1.24362612686872
H        -0.01787228654382       0.12874487435097       1.59221155953923
H        -0.24311603304600      -1.74999915162308      -1.55897293672380
H        -0.66858744034306      -0.02749009847772      -1.61896355368155
H         2.68465935889702       0.38773686859165      -0.71210034046092
H         1.33188914641895       0.78982093860154      -1.78712483268363
H         2.21734738463380      -1.10150595986593       2.33909927425526
H         3.28271860973421      -0.91128674322567       0.93581003952648
H        -0.95337390475222       1.72655798069198      -0.14995712148957
H         0.70122128350599       2.29703440479836      -0.48556848138283
H        -1.93613153642019      -0.24536067387887       0.52965851757016
H        -1.47261255406743      -1.95525180748662       0.65290963892882
H         1.49639110645565      -1.64346998702681      -2.70535997700704
H         3.01915530632794      -1.77125863643797      -1.78218778242459
H         3.64940521352104      -3.30743209896606       0.76602171324702
H         2.49022699651028      -3.63876646672398       2.07244261215942
H         0.96370091510479       3.00979214658678       1.87589924572495
H        -0.68315459352496       2.46138060049661       2.24384130623737
H        -2.60707579378928      -2.41954785526043      -1.53105730917505
H        -3.07571094993003      -0.71637094272489      -1.65167681659653
H         3.81239680347569       0.34550119842226      -2.95842173494463
H         2.36551408970263       0.25449427464725      -3.98296758152522
H         3.94205535719803      -2.39156694534507       3.69904144839693
H         5.06837541194776      -1.96198114639154       2.38672212895608
H         4.89366891501008      -3.66098496482826       2.88883818642971
H        -1.59321219255985       4.11953036403861       0.54856819359852
H         0.07170781332628       4.66687973235306       0.21834297504894
H        -0.64996570960022       4.93152436129619       1.82125506389944
H        -4.41875246833703      -0.92996748529162       0.47886419641193
H        -3.94348141609274      -2.64192071769677       0.60195784305462
H        -4.96514059249044      -2.09647413816592      -0.74747105968797
H         3.11243930469056      -2.06536557361168      -4.75120711449455
H         4.56958040958558      -1.89144074849503      -3.73044584541178
H         4.32660354982566      -0.81380472202454      -5.12013107149878
P         7.01803770714831       0.98246461291190       0.22632591695907
F         8.29235647299623      -0.06821834452928       0.40812538949741
F         7.73155724898264       1.66129740398716      -1.11026317654257
F         6.20545934998371       0.32187494176033       1.53925181583532
C         6.18806328930649      -0.42070497400752      -0.91900319796385
C         7.97364956779698       2.16069812230996       1.47953204401809
C         5.49719665501988       2.30646976010558      -0.11464063688144
C         6.74409813930659      -1.87794929636346      -0.84108777339883
C         9.17744266205263       2.99109646427777       0.95213748588918
C         4.29231522146316       2.52978506041567       0.86260408816707
F         6.23375129570916      -0.12035507999427      -2.25955688222605
F         4.83548018441062      -0.57443452142085      -0.58892934065028
F         8.48079174153714       1.38702819540298       2.49987143057344
F         7.12769840528763       3.07179982460462       2.07837219987714
F         4.87851496788481       1.96433996321197      -1.31570868238723
F         6.01309852755868       3.56396809610475      -0.31319187142060
F         5.90808016807534      -2.70412239220535      -1.56546082359847
F         6.76470294750777      -2.35856617834394       0.42151143067779
F         7.96805087985748      -1.98655559696103      -1.38810653944739
F         9.76035123435912       3.64688404592931       1.99919422394017
F        10.11775683052082       2.20407081166176       0.38490487416691
F         8.78807109871864       3.92699234963457       0.05494530470587
F         3.27262027604727       3.17824367538473       0.20182082931985
F         4.59147607731415       3.27158411087451       1.93940684361869
F         3.76169145550217       1.35247894186178       1.30615951952013
