42
C12H28ClN optimized with ForceField in AMS.
N        -0.01398958599913      -0.00236546041061       0.00276170337560
C        -0.84550408654871       0.65864356346935       1.07040647360390
C        -0.87885475806177      -0.63073244484443      -1.05759684363461
C         0.81667661801683      -1.08244275079631       0.64380363238897
C         0.85240884791516       1.04599357567630      -0.64503792637496
C        -1.93111548739211      -0.22994659309811       1.73123447164088
C        -1.93302940085874       0.30006483168197      -1.71038280086356
C         1.85567472590884      -1.77187967490577      -0.27740584742158
C         1.94920194165540       1.66958567800910       0.25669210109975
C        -2.71167173441697       0.55984529879264       2.77899272718042
C        -2.74595496902879      -0.45635157943638      -2.75824779550907
C         2.66812798273654      -2.80341482375905       0.50106665884082
C         2.76026379024091       2.70703929857847      -0.51557591550744
H        -1.33814154815919       1.57313547505630       0.67166178820217
H        -0.19338628743063       1.01452618504633       1.89673214798012
H        -1.40277461959086      -1.52573996922574      -0.65451797629246
H        -0.24718591687024      -1.01167382725646      -1.88878233845210
H         0.16143094612596      -1.89364701913179       1.02717084656245
H         1.34607547479365      -0.68767421422496       1.53903379009155
H         0.22626161838071       1.89270022595627      -1.00031730362966
H         1.34046449883762       0.64096633339956      -1.55912370083172
H        -2.65958209364796      -0.60595789772163       0.98578129580118
H        -1.47189282468575      -1.09748344939442       2.24523506443504
H        -2.64406676020515       0.69917416242325      -0.96004953050684
H        -1.44329750801669       1.15249901786869      -2.22180361163896
H         1.35091367045630      -2.30506231844871      -1.10786557830630
H         2.56769498840036      -1.04117538361104      -0.70786924093463
H         1.49726591540174       2.18308248490972       1.12853325491394
H         2.65820166024576       0.90181288298493       0.62540837743191
H        -3.47775210391662      -0.09458364631909       3.24564748749059
H        -2.02827215247879       0.92681314789921       3.57403715833303
H        -3.22341232923190       1.42589369982328       2.30817933327119
H        -3.49098583511145       0.22669319758235      -3.21793784238191
H        -2.07962261034279      -0.84274025506288      -3.55854688406824
H        -3.28512104218218      -1.30666582599291      -2.28926359448030
H         3.40731360169291      -3.28315995538154      -0.17453148429838
H         3.21477898075100      -2.31462324417108       1.33531832411248
H         2.00015599246854      -3.59023748763712       0.91192275204286
H         3.52809302317388       3.15227857847253       0.15162958002518
H         3.27248830544977       2.23199722507385      -1.37901936955238
H         2.09845798682046       3.51939926398057      -0.88397042872814
Cl        5.55688156590406      -0.37737543775463      -1.05201830271080
