29
C9H13F3N2O2 optimized with DFTB in AMS.
N         1.97024601618297       1.10328064417179       0.64961526280773
N         0.41038204326083       0.12645903976181      -0.46554126222268
C         1.72312971086918       0.33253919747072      -0.40621892899866
C         3.30480928535904       1.46045523154199       1.12849796697955
C        -0.25037450699879      -0.76920924472985      -1.41228703711008
C         0.79028631907813       1.39077418690358       1.28273459065603
C        -0.19441198101436       0.77418716942930       0.57879843345143
C         3.57320311956856       0.80712208866798       2.47900834592154
C        -0.85554312979514      -1.95998268729685      -0.67747886921218
H         2.45782842686285      -0.06520277000940      -1.08526770732966
H         4.01790800934602       1.09248654681954       0.38810704791754
H         3.36489834383499       2.55139551158963       1.19353319577626
H        -1.01657451957619      -0.19929140479278      -1.94729324036458
H         0.51423677800137      -1.11182800522434      -2.11248567898702
H         0.74479819751318       2.00448904588818       2.16518283850658
H        -1.25887949418187       0.74929066869110       0.73259981138968
H         2.83969765439799       1.12516093911026       3.21926299928205
H         4.56823810726323       1.09700254536805       2.81325484911173
H         3.53924468499169      -0.27633571806167       2.37397572312509
H        -0.06645138821383      -2.51460290041946      -0.17120669194948
H        -1.33415047085271      -2.61398498347388      -1.40496833827348
H        -1.59748387537399      -1.63515476147469       0.05120568851451
C         3.03119748491641      -2.24405695590223       0.06953215570766
O         3.78957905512936      -1.30976875476493       0.33538581789036
O         2.12897113667553      -2.32663771570710      -0.76714715686483
C         3.17421042597868      -3.52740321721515       1.01744069961913
F         3.06165046185742      -4.68974507363238       0.36046525395377
F         2.18303885649965      -3.50524047424473       1.94148682692267
F         4.32924813451983      -3.55984298446451       1.69600620937935
