41
C11H24BF4N optimized with ForceField in AMS.
N        -0.83568335265398      -0.20585192318246       0.02658257468950
C        -1.16820647979781      -1.24938580543970      -0.99250635136952
C        -1.97311041396785      -0.23632356014262       0.99717887231742
C         0.43440934174347      -0.56426401389077       0.73929094967679
C        -2.59105669649769      -1.71764022530097      -0.75064792067015
C        -2.80528227707760      -1.47199992398668       0.71565784619130
C        -0.76137950987545       1.13551150132845      -0.63933848642787
C         1.70319264472057      -0.53518119839706      -0.14735496901153
C        -0.40284145937042       2.30427533505869       0.30965849362188
C         2.91522321683469      -1.06688502568081       0.62774442802841
C        -0.49643919421421       3.64310505749249      -0.41606960252969
C         4.18038389940917      -1.03289086403401      -0.22368893785022
H        -1.06501383083273      -0.89077500656890      -2.04192305788673
H        -0.51471517548769      -2.14742168717548      -0.90686996128024
H        -1.64608381385060      -0.23668708221611       2.06202047641608
H        -2.65055847580805       0.64065537805780       0.88120042783225
H         0.33677058921929      -1.58316321512544       1.18221309539511
H         0.60160020935197       0.11363086252446       1.60529380901529
H        -3.29905159502740      -1.09870501529246      -1.34564414417232
H        -2.72489665387810      -2.79111965209906      -1.00804131424673
H        -2.41700561698398      -2.33194704648924       1.30536627369787
H        -3.88030639701777      -1.31105194268691       0.95036477749049
H        -0.02129683827664       1.11997804500946      -1.46962652733435
H        -1.73873757682522       1.36439673912191      -1.12558875423481
H         1.55869717226303      -1.15201794824172      -1.05902208777738
H         1.92529544864472       0.50552023865222      -0.46282252098094
H        -1.08706249149324       2.33009561201920       1.18311041065540
H         0.63577234310251       2.19743797556461       0.68511213578618
H         3.07764786344703      -0.44711381869962       1.53631221186699
H         2.72636538244541      -2.11531842348246       0.94560233467179
H         0.21155184412430       3.66659810316366      -1.27187057552407
H        -1.52906303671264       3.80984261001006      -0.79003510924385
H        -0.23526781128208       4.46551660018878       0.28301346352822
H         5.04066970469390      -1.40291524610160       0.37390754422138
H         4.06000701000387      -1.68608426605253      -1.11292076626985
H         4.39903036259741       0.00484396720929      -0.55485835932180
B         6.15598282316376      -0.81234736000821      -4.05554182114130
F         5.15301842966475      -1.67152967358142      -3.53487437382512
F         5.82878048997107      -0.46078706758407      -5.39203880615031
F         7.40876482148756      -1.48104785070503      -4.03493981179593
F         6.23311327484268       0.36286719146424      -3.26161505555766
