38
C12H22N2O2 optimized with ADF in AMS.
N        -0.72819915743347      -0.84263631427002       0.71260654470908
N        -2.51261206060202      -0.67653225678640      -0.48570867953623
C         0.34714714414631      -0.48437029109922       1.64994654936786
C         1.59337977257085      -0.02303855702957       0.89919378723670
C        -3.71444812235739      -0.08029210706184      -1.07662315006603
C        -1.80635216444290      -0.07572069419522       0.48894589726605
C         1.35374001719354       1.25578406186411       0.09814912583561
C        -0.74228556209667      -1.93517169568682      -0.13578609933298
C        -1.87124892177736      -1.82985227874878      -0.89675527531414
C        -3.38360098357999       0.76542154479984      -2.30529275269737
C         2.62618912302625       1.77478709385618      -0.56376643475860
C        -2.45995211465995       1.94047726406736      -1.99294889766949
H        -0.05420310405423       0.35017532993264       2.25462457831199
H         0.54474319324467      -1.36498479828606       2.28168127474494
H         1.97047318387758      -0.82951711587055       0.24064662834869
H         2.37742524730509       0.15600917813175       1.65679221963983
H        -4.16564981029033       0.54411166794431      -0.29064841149330
H        -4.40819564109577      -0.90034377214461      -1.31813430676933
H        -2.11872370074186       0.95004380738215       0.96122143215341
H         0.59091508795818       1.06344385304269      -0.67699355992606
H         0.91990387568797       2.01274677251777       0.77491236733325
H         0.02923365045088      -2.69575127180829      -0.11258184154670
H        -2.27703425832377      -2.47835533776734      -1.66421948908740
H        -2.94451751985892       0.11877222059433      -3.08677108249804
H        -4.34595189175337       1.13252028764214      -2.70371182420575
H         3.04585655716626       1.03547022387944      -1.26620239587253
H         3.39918207557672       1.99610446826591       0.18989840983842
H         2.43187706970753       2.70190027145787      -1.12502338048433
H        -1.45417936449232       1.59758370887057      -1.70572410362824
H        -2.84406492632507       2.53901686751063      -1.15166928671729
H        -2.34892197282699       2.58806993180254      -2.87568391425079
C        -2.18700621160827       4.24112606969685       2.65256124365571
C        -1.85157083971701       2.85596519789962       2.10278929882300
O        -0.75714474996544       2.33553751588631       2.44405392340603
O        -2.73508396776488       2.31738784973962       1.33836178433074
H        -2.40994512037254       4.14811595128285       3.72692248782021
H        -1.31419024478139       4.90304759975011       2.55945511264491
H        -3.05656032138992       4.68113577893709       2.14587764178815
