39
C9H20F2N2O4S2 optimized with ForceField in AMS.
N         0.25995036740618      -0.11394094036182      -0.18180382799577
C        -0.59831919837564       0.70165048315970      -1.10078124995729
C        -0.50440355066094      -1.33469122451007       0.23618481734751
C        -1.96520011212769       1.08210062860340      -0.50666609094313
C        -1.88818225409398      -1.03344115540879       0.84494226022122
C         0.67288713120415       0.66526130455570       1.03744236249869
C         1.45361878586744      -0.55121127060024      -0.98318217045187
C        -2.73175227341614      -0.16777961971031      -0.08610627851261
C         1.54448099054281       1.90714270273849       0.77227400630053
C         2.51775518138099      -1.35276216435781      -0.21040633274855
H        -0.80086331222999       0.13310097819746      -2.03882975627291
H        -0.07998464521294       1.62688295992347      -1.42805521071530
H         0.05971988109749      -1.91710642515619       0.99580609923606
H        -0.66346557333457      -2.01167478261123      -0.63499021077434
H        -2.55624545709446       1.61986844675557      -1.27924481602985
H        -1.85255677487894       1.77722467467447       0.35051931647356
H        -1.78637964246134      -0.54412374827766       1.83585796536151
H        -2.41993077798432      -1.99465085249329       1.01608164575722
H        -0.20779931097710       1.01544568372015       1.60943962788875
H         1.21963024046014       0.01046166706533       1.75007672105707
H         1.13062772900181      -1.18475072412598      -1.84132149219552
H         1.95748702491482       0.32276743155179      -1.45190212048369
H        -3.66925543929739       0.12860189128647       0.43229237227887
H        -3.00887656395483      -0.75545812212304      -0.98923749149865
H         1.80753178570541       2.37222950242213       1.74570007190224
H         2.49750122813268       1.65002150437420       0.26969641622485
H         0.99918657012286       2.67254723083587       0.18554242590519
H         3.31234230581083      -1.65768254975659      -0.91833708213092
H         3.00204946157587      -0.74349817869568       0.57840676748536
H         2.10219481680137      -2.28159480347632       0.22650854555816
N         5.64066220532312      -2.88024394221898      -1.53032030339221
S         6.83636606777848      -3.54905561861075      -0.63681284923041
S         5.96884813507636      -1.84858850089410      -2.75707895370984
F         7.48554602908201      -2.38643299588750       0.37741741216233
F         6.55404519289715      -2.71678916621866      -4.06254675669475
O         6.27858232433941      -4.67376974577558       0.18805620297107
O         7.92057600024271      -4.07016378338835      -1.53804861400084
O         7.00825141842794      -0.85123857862040      -2.32779709378391
O         4.71381583760823      -1.12950610248487      -3.16283423760781
