56
C14H28F6N2O4S2 optimized with ForceField in AMS.
N        -0.00589815232686       0.00692362949772      -0.00341204652634
C        -0.85097551222179       0.64835598599472       1.06555178785576
C        -0.85722856473508      -0.63770645417914      -1.06553264117861
C         0.84696095880238      -1.05789038847710       0.63451479742058
C         0.83860094975574       1.07421821611545      -0.64886850926782
C        -1.91612433789457      -0.26426027312764       1.72615134788327
C        -1.92917986548878       0.27095690062907      -1.71957657325130
C         1.91214220349773      -1.70946733122181      -0.28464647318496
C         1.91289505643144       1.72839069754042       0.25833406624280
C        -2.71035627875467       0.50704703734642       2.77826492933215
C        -2.72594914138094      -0.50410014841355      -2.76707370745320
C         2.71578590816592      -2.75887524253013       0.47731222619899
C         2.71015940494806       2.77552152033376      -0.51622032711855
H        -1.36305273372762       1.55288071945198       0.66801233924946
H        -0.20595950118820       1.01609345752681       1.89243046505160
H        -1.36335133125350      -1.54385486809989      -0.66398144717357
H        -0.21778020107546      -1.00349633103988      -1.89739055335095
H         0.20816659723181      -1.88933147061525       1.00298801769105
H         1.35905378719847      -0.65947738956025       1.53863224152605
H         0.19427979197208       1.90451814009831      -1.01005680595516
H         1.34207782861675       0.67730996362526      -1.55845525259318
H        -2.63763892546570      -0.65257640105710       0.98006068019867
H        -1.43756650844609      -1.12413186127811       2.23626068653021
H        -2.64746397496957       0.65688796428335      -0.96916086700918
H        -1.45637095787562       1.13216240140263      -2.23276935447840
H         1.43379318294750      -2.22080864424275      -1.14368365258139
H         2.62783601462481      -0.95853027118193      -0.67416033028547
H         1.44182150151032       2.24117350866336       1.12073491430143
H         2.63217586052772       0.97856433076657       0.64350969147135
H        -3.46364004110982      -0.16353942373800       3.24310694780602
H        -2.03327678855631       0.88335683529594       3.57470649218002
H        -3.23932936047392       1.36535943298026       2.31186059068212
H        -3.48300121381662       0.16357848716589      -3.22978866261865
H        -2.05126872558419      -0.87994760527861      -3.56585894559756
H        -3.25017884640696      -1.36333312515685      -2.29701140479551
H         3.46872168263478      -3.21215542046815      -0.20154747597421
H         3.24538706190123      -2.29438383324145       1.33626088351167
H         2.04617223880815      -3.56304308896313       0.85077639293502
H         3.46792214965988       3.23667234119613       0.15194336435418
H         3.23424268603082       2.30543227187011      -1.37549820176461
H         2.03618225360514       3.57523232666819      -0.89097000698029
N         5.77040317765704      -8.48950458645701      -0.39256003971888
S         4.87344292186751      -9.41157794997132      -1.40791138311093
S         5.55870415955337      -6.87081276179919      -0.24506577371139
C         5.72482374341086      -9.56461689952778      -2.96435953772827
C         4.54834441258412      -6.54436831270871       1.18348602680970
O         4.70321950033236     -10.77982042211523      -0.81108015292933
O         3.52232137845865      -8.79153728595241      -1.63415647960983
O         4.89477592837193      -6.30430131676789      -1.46970373676408
O         6.89631380627037      -6.21472458068878      -0.05151208761720
F         4.99112681422647     -10.36855376205217      -3.81588008106686
F         6.96794809469738     -10.13180888062542      -2.75727601274741
F         5.88130833617036      -8.31603021623974      -3.53511450494142
F         4.43376930612595      -5.18066517266298       1.36602346381721
F         5.13354725243743      -7.10521120572473       2.30246757953284
F         3.29223575481774      -7.09043227978821       1.00018194650239
