35
C9H18F3NO3S optimized with DFTB in AMS.
N        -0.23851733550257      -0.60696364907561      -0.03320714402816
C         0.58211909778023      -1.36581009790176      -1.03642172431157
C         0.72447525343964      -0.40571403736631       1.09986441891028
C         1.97764460553166      -0.75750168913064      -0.96018581526197
C         2.08327683125442      -0.15900741184134       0.45061415008861
C        -1.42130668913489      -1.40499231739060       0.43628346859066
C        -0.64144130065387       0.70711298979676      -0.63709334101086
C        -2.31935957613074      -1.88203557087139      -0.69266305136236
C        -1.55731828444667       1.55986781463423       0.22971984289155
H         0.12699714853273      -1.28121741097672      -2.02321873645702
H         0.59109119366904      -2.41433906572970      -0.72794044435684
H         0.73788286307346      -1.33175620623101       1.68029631909203
H         0.38740343176064       0.41298070614464       1.73446770345450
H         2.11516792419194       0.01344162922569      -1.72228281337733
H         2.72719584879609      -1.53330946672216      -1.11942703494794
H         2.86179546014742      -0.65458492222126       1.03260197114680
H         2.31507598000997       0.90768353267685       0.40671196202800
H        -1.02562675237528      -2.27200710261672       0.96738841533156
H        -1.96964288359608      -0.78497840056246       1.14747015007921
H         0.28012226396168       1.25428888801261      -0.84699088296749
H        -1.13476306679860       0.49047968618591      -1.58753862762258
H        -3.19102499470778      -2.35640364079658      -0.24270640877766
H        -2.65941537006386      -1.06692733978183      -1.33029991483531
H        -1.80452564375988      -2.62695928008273      -1.29681442048151
H        -1.64437119042590       2.53767420907369      -0.24407135319447
H        -2.55433912326125       1.12991889030440       0.30481253179026
H        -1.15553587642587       1.70112226028824       1.23142265083132
S         0.48430834932956      -4.40791272485232       1.38929289838594
O        -0.04326963695749      -4.16972562411364       0.04830879074963
O         0.17213949991115      -5.68555192927076       1.96273125191749
O         0.31674576406310      -3.25746992462127       2.27444789623960
C         2.31850453226172      -4.41381654821818       1.10192683305894
F         2.64493944566727      -3.28753847314863       0.43253486021032
F         2.71771955589271      -5.44204084388968       0.36908546469384
F         3.00351073816631      -4.40951540882966       2.23676234040253
