43
C11H24F6NP optimized with DFTB in AMS.
N        -0.73644739293877      -0.20655527952685      -0.00713635030197
C        -1.76748684480878      -0.07304335883424      -1.09287703474590
C        -1.11566357311106      -1.36359884678077       0.87804407109111
C         0.56509671446130      -0.52777738960432      -0.70349492840511
C        -0.62103444393359       1.03507999727809       0.82607953085740
C        -3.18841632676186       0.06469007073476      -0.56317656555581
C        -2.52858191653755      -1.26808855282221       1.43587847615992
C        -3.54711293304539      -1.13825094343904       0.30662638297407
C         1.76840535268588      -0.71850718293876       0.21377102845975
C        -0.15248537514291       2.27494271327885       0.07818557706511
C         2.95870926336829      -1.19031353537806      -0.63247594412570
C         4.20283540587195      -1.38121686952980       0.23090915255219
H        -1.69334985960658      -0.97959770177653      -1.69728126982141
H        -1.49457387150884       0.78368599092467      -1.71140003777896
H        -0.39086701457007      -1.41300635423606       1.69143923843503
H        -1.03334258691294      -2.26080991611897       0.26755380366040
H         0.75367029595970       0.27642868241453      -1.41860188582330
H         0.39112093876052      -1.44937532106396      -1.25978133274594
H        -1.60165594232031       1.22658332678689       1.26476696072058
H         0.07484729963301       0.80774050419415       1.63691948776225
H        -3.85310335626977       0.11074587166884      -1.42977029769140
H        -3.31113904317647       0.99485813979603      -0.00009661457876
H        -2.62679332618049      -0.43298948859279       2.13666008104035
H        -2.70961623827379      -2.19273892692890       1.99052076780974
H        -4.55050153230853      -1.01387067640539       0.71999351946984
H        -3.53344958611897      -2.04699972351577      -0.30205996450536
H         1.55511678559573      -1.48145568575194       0.96522022576326
H         2.02547738276339       0.21337052480059       0.72677374186526
H        -0.15634008351609       3.10527296286723       0.78433626189802
H         0.85977770033048       2.15979623805582      -0.30414411714287
H        -0.81705839934164       2.52731250851221      -0.74604317864681
H         3.16377856703320      -0.45601227060392      -1.41885178125316
H         2.69750164801673      -2.13847606249838      -1.11079758814858
H         4.01857939248462      -2.12816462985685       1.00362261572552
H         4.48686521550595      -0.44383702910042       0.71219372645569
H         5.03285528727336      -1.72007931999341      -0.38853944257155
P        -0.34458289615194      -4.37355347981092      -1.25068348783205
F        -1.42622574823576      -4.32200541315076       0.00849176577748
F         0.70578056584174      -3.44386777247467      -0.31498494985419
F         0.32280784482161      -5.73002049078287      -0.66274376570320
F         0.72923258125093      -4.30478558959256      -2.47918465424990
F        -1.40703455570146      -5.20382623038619      -2.15640947080247
F        -1.02720708988477      -2.91819613421736      -1.81011548215858
