47
C13H28BF4N optimized with DFTB in AMS.
N        -1.43122494609916       0.14350962585749      -0.26780967756260
C        -2.37822294331868       0.60342684549901      -1.34051968444322
C        -1.60474818625899      -1.33729449227764      -0.06116743594324
C        -0.04622584433985       0.40925599701974      -0.80766063465865
C        -1.65515406291689       0.84684694012405       1.03806603981693
C        -3.82978202966471       0.24017014925194      -1.06342099432301
C        -3.04616301351821      -1.74772205538736       0.20830075237261
C        -3.96299656308054      -1.27372501568619      -0.91622412602577
C         1.10680142650740      -0.09841219525422       0.04980084798398
C        -1.43247245170590       2.35237062340495       1.01461189090845
C         2.41688193194896       0.21353385992809      -0.68493330721108
C         3.62151143305480      -0.33518771171518       0.08383749689539
C         4.92730702513065      -0.04770351645788      -0.66353069973719
C         6.13554805859405      -0.59582844091151       0.09396863496389
H        -2.05455160292089       0.10788989026152      -2.26016128476573
H        -2.25542241905100       1.68147779513561      -1.45734818521261
H        -0.96803899544063      -1.63075443921177       0.77471919137260
H        -1.24593985423932      -1.82332873487879      -0.97036913083597
H         0.03455647236317       1.48736942937123      -0.96328845804532
H         0.00255307308607      -0.08098271504852      -1.78097111157060
H        -2.68014871381050       0.63893807699134       1.35032808928055
H        -0.97902170790841       0.38775736965140       1.76330133932961
H        -4.41975744311902       0.58719780639366      -1.91576073441223
H        -4.20445750039554       0.74785081995304      -0.16913803778233
H        -3.39674465473500      -1.36163253318745       1.17102677708506
H        -3.06105473853177      -2.83934431785230       0.26400228545070
H        -4.99878895914188      -1.54133608388549      -0.69478692370988
H        -3.66945325915125      -1.75653678297262      -1.85328349441450
H         1.10909602292341       0.36958737176413       1.03962381127652
H         1.03090537668287      -1.18109351820710       0.17192728664687
H        -0.39453981920933       2.60561109558757       0.80773369568969
H        -2.07161224332214       2.84654707229607       0.28517412678962
H        -1.68465180197417       2.73643823453605       2.00321718787015
H         2.51988062858706       1.29718323283477      -0.81015008704899
H         2.37687595359563      -0.24117045138555      -1.67947533318307
H         3.50633238596598      -1.41644071771735       0.21337401151390
H         3.66071142919919       0.11913232550684       1.08092016291058
H         4.88343273788273      -0.50441526299565      -1.65744951279107
H         5.04103848788885       1.03381802154303      -0.79672265963317
H         6.05086729778410      -1.67647549214908       0.21719283574580
H         7.05178910158016      -0.38007875113120      -0.45636926411092
H         6.20821768914653      -0.13887205610184       1.08237178835358
B         0.15528869959132      -1.97368331462409      -3.10888400432412
F         0.91391398749101      -0.83347968777518      -3.41228420833694
F         0.51713779084758      -2.39828728816614      -1.80307712664267
F         0.30491130769674      -2.96925647263921      -4.02618283924376
F        -1.21906335029451      -1.56060467069222      -3.02046616918785
