34
C8H18F6NP optimized with DFTB in AMS.
N        -0.80234664092422       0.03203129870144       0.05381965517675
C        -1.50720694641557       0.54414523755741      -1.16469960618115
C        -1.28829207585881      -1.38212100753143       0.16517265311758
C        -2.90328886997403      -0.07475248693221      -1.10778976067613
C        -2.76041693413987      -1.32373396771778      -0.22377079240089
C         0.68173742100077       0.10138128900243      -0.13760758770130
C        -1.21287721949394       0.84127992851012       1.23464904970199
C         1.48447245202943      -0.49225494464978       1.01979087706132
C         2.97304687789109      -0.45777364132551       0.68030053348194
H        -0.95812790951095       0.19230789024189      -2.04125848020640
H        -1.50700905156631       1.63455570644897      -1.15317021621032
H        -1.12860678063806      -1.74830867055898       1.17625211934765
H        -0.71257051279080      -1.98094098047790      -0.54471001050937
H        -3.23926226411580      -0.32816344835527      -2.11501509665921
H        -3.62089714337237       0.62689879056227      -0.67843902856298
H        -3.38376624080186      -1.24293472616480       0.66828919821350
H        -3.04484814063225      -2.23096945928976      -0.75850756296021
H         0.93501752492893       1.15619198639733      -0.27996898480451
H         0.90838285994657      -0.43811472158090      -1.06200949406173
H        -0.85803836431982       1.86167485054569       1.09939665345804
H        -2.29594972126474       0.82569652436433       1.31560336389734
H        -0.78725346750150       0.40556073131161       2.13340726588219
H         1.30900858715193       0.07445976782170       1.93586756024431
H         1.17478205828825      -1.52298567551785       1.20203497684604
H         3.54209294149618      -0.87752438052047       1.50860194043339
H         3.17867673609336      -1.04428463265504      -0.21608955811382
H         3.30697338753936       0.56691669870114       0.51199870668091
P        -1.72763627300604      -1.95772788832098       3.83943036890715
F        -3.11184659317614      -2.52307341235847       4.47011874851069
F        -2.61188459451670      -0.97841927494133       2.77850267220255
F        -1.68176947545492      -0.71782343785658       4.90094628227477
F        -0.31632766934940      -1.34864268544899       3.11649127390828
F        -0.81979685782621      -2.89204507274490       4.80737263501985
F        -1.74329202631556      -3.13492415921740       2.67233924508179
