37
C11H24ClN optimized with ADF in AMS.
N        -1.10600452522526       0.08197684768270       0.14682275661272
C        -1.44102020978945      -1.01272117539573      -0.85696114020135
C        -2.22982239313196      -0.02112443667502       1.15200637333658
C         0.22134625331748      -0.17558371262175       0.81663792313960
C        -2.95778917468194      -0.94891643989016      -0.99532435189394
C        -3.48329053584785      -0.33647654187707       0.33161637640323
C        -1.13902369304199       1.43071089504562      -0.56485213423222
C         1.41355556842364      -0.15012040644523      -0.11763185820657
C        -0.68018949542167       2.59288985584530       0.28872027732243
C         2.68929126966605      -0.52289316758987       0.63391434050181
C         3.90476749124201      -0.56503092424376      -0.29139451171963
C         5.18971155689155      -0.92229944533201       0.44825210531090
H        -0.87512646254648      -0.80274016367022      -1.80052448222785
H        -1.11121730171975      -1.95443962044126      -0.39173945604218
H        -1.96827464385018      -0.85276778814389       1.82300281243556
H        -2.28248107792689       0.90467690503466       1.73871590492307
H         0.31876894037060       0.56630554414512       1.62496083922601
H         0.11922374376502      -1.16768908733961       1.28655185691944
H        -3.23373230419059      -0.32554962573766      -1.85877126548743
H        -3.36441985768762      -1.95325298862620      -1.17815545612658
H        -4.12635677071549      -1.03346875873596       0.88825018866488
H        -4.07594222038652       0.57128602919964       0.14505281431303
H        -2.18196477937990       1.56816922089241      -0.88317092748658
H        -0.52880086331211       1.29508542142837      -1.49207944560602
H         1.52748707773378       0.83930670196109      -0.58699053547789
H         1.25233731351279      -0.82854849515794      -0.97122460916028
H        -1.23974966168377       2.70462374161071       1.23098193379879
H         0.39333943351358       2.54243047330876       0.51898085858012
H        -0.83938212893185       3.51260637237056      -0.29496166763688
H         2.56753406618927      -1.51248440849504       1.11527512807448
H         2.87586430511781       0.19995105654202       1.45145066078871
H         3.71439370849033      -1.29349762146016      -1.09836583341982
H         4.01394804630469       0.41412190976109      -0.78970403668323
H         6.04885663435328      -0.96554520364723      -0.23828528387118
H         5.41779538719649      -0.17721665691638       1.22779157324223
H         5.10181230140723      -1.90465929857860       0.94080873946604
Cl        0.29341952867566       0.28748289689268      -3.29258795018001
