42
C12H21F3N2O3S optimized with ADF in AMS.
N         0.06884768209937       0.88781587930251      -0.56811683791751
N        -0.66283144361862      -1.04443459755255      -1.22125186906966
C         1.49911806516975       2.16963366481460       0.99298569532449
C         2.39503586210962       0.99697928836261       1.38256775197609
C         0.95048782472398       2.05829652438724      -0.42485895705888
C         2.82894090122396       1.06800662672742       2.84664215704150
C         3.85047676779301      -0.00745074965260       3.23011805480072
C         0.30961111353860      -0.13875121399813      -1.39559559293186
C        -1.07530492976049       0.62978570630901       0.16065500706383
C        -1.53485745037054      -0.58746132070332      -0.25174998621953
C        -0.70501855025483      -2.37720183310810      -1.85267665058596
C         5.23219076391671       0.23533523365751       2.62510855895866
C        -0.19352771952327      -2.35128722772699      -3.27965307378876
H         2.06771062378191       3.11463284609682       1.04866019646180
H         0.66322829126096       2.27381402057003       1.70990228474428
H         3.27410818643938       0.97634402014207       0.71887203715606
H         1.86838523292338       0.04073282160442       1.21018454705344
H         0.37040534893808       2.94759073633490      -0.71672044239355
H         1.76850165213911       1.90786026483303      -1.14535436991551
H         1.93266426674505       0.97755514370958       3.48891028406996
H         3.26171591806050       2.06586557924923       3.05457320657429
H         3.47603582131427      -0.99509888592590       2.90364638520615
H         3.93101233069261      -0.04587098338277       4.33108215104345
H         1.21422235116435      -0.22195533022449      -2.01118505439851
H        -1.46531214815340       1.32294224868461       0.89507297140192
H        -2.39830347047809      -1.16219918631222       0.05961919885618
H        -0.08051739460687      -3.03942099103060      -1.23267329045143
H        -1.75544121373979      -2.70034705043422      -1.80384990522025
H         5.62052900408917       1.22140121883370       2.93273790527482
H         5.20477884699315       0.18993394938095       1.52674444873625
H         5.94907850123725      -0.52995104118160       2.96104106373712
H        -0.74701822021314      -1.62068007856105      -3.88859805037037
H        -0.32753753671403      -3.34978079416367      -3.72013470755151
H         0.88136573187121      -2.12618784919872      -3.30192245100441
S         3.44594022027207      -1.47281488089965      -1.45602965292550
O         2.26007518140235      -2.28866740636100      -1.10972904449692
O         4.47505145801024      -1.35321683291820      -0.42319136393378
O         3.09173453434690      -0.20569140166627      -2.15822577517323
C         4.27224822323459      -2.47343767278946      -2.81007370169881
F         3.44246722704461      -2.61065219441448      -3.88850849343793
F         4.58765090350523      -3.71890793379507      -2.37145099251020
F         5.41070457199169      -1.87355454019919      -3.23619592062696
