45
C11H20F6N2O4S2 optimized with ADF in AMS.
N        -0.33551967063473      -0.35771983612159      -0.77179829861387
C        -1.41431950633701      -0.06908143734607      -1.81261586077508
C        -0.31140723319671      -1.85089783058319      -0.48324676944141
C         0.98904125965345       0.05692941578490      -1.39893600493187
C        -2.77875936364972      -0.60554792230519      -1.41771144483670
C        -1.66716549260745      -2.39962149562003      -0.07386684242196
C        -2.71480010038300      -2.10774333129632      -1.14637508058702
C        -0.58366436977562       0.42341560845466       0.47440955073927
C         2.22330198756838      -0.06523793968056      -0.52368119997124
C         3.45282413853212       0.26431089212818      -1.37589676874201
H        -1.06150105982616      -0.55069155398913      -2.73792431851767
H        -1.41277324291225       1.02131707789073      -1.96110767600420
H         0.44995264624886      -2.01222643324492       0.29090951862517
H         0.00923106624910      -2.32934639585905      -1.41785797153498
H         0.84710008687078       1.09383422244839      -1.74247767966069
H         1.08820225864531      -0.57741365650931      -2.28759195825853
H        -3.45683771400925      -0.38911116696947      -2.25983675593220
H        -3.18858673972455      -0.06595806329111      -0.54528331360230
H        -1.98237628607488      -2.00384168250533       0.90806677201118
H        -1.53579517716083      -3.48692122731785       0.04855509929247
H        -3.70052061594543      -2.48768415125892      -0.83685325994085
H        -2.42504347296099      -2.63739272833145      -2.07038989238284
H         0.16974706263638       0.15058271547716       1.22258382508005
H        -0.50866928602868       1.49277543431539       0.23708110590311
H        -1.58212665865960       0.19767211638255       0.86039956605112
H         2.17464067476832       0.62176633493278       0.33807158637444
H         2.32430586787379      -1.09073290097874      -0.13389823016825
H         3.52349195808949      -0.41543406913832      -2.23829149513203
H         3.39951117308462       1.29328868477101      -1.76364924386928
H         4.37185194040929       0.17045143122224      -0.78016085182037
N         0.20120601403001      -2.09199141400256      -4.01127420432072
S         0.48019709960571      -3.67997783319249      -3.94542378545460
S         0.99038721574321      -1.04210247351391      -4.95672879259098
C         2.19272471691701      -3.93334679496974      -3.15293091487418
C         0.61475766362930      -1.43958282239153      -6.77532843340258
O        -0.41857273554922      -4.17744699506927      -2.90175536827827
O         0.58197719567506      -4.35446536714382      -5.22924595035557
O         2.44494157368506      -1.12682471870694      -4.85613430444872
O         0.32558077466394       0.24171123513746      -4.72943516732675
F         2.24341615714369      -5.18224100836688      -2.62920629708358
F         2.38589968158245      -3.04442980881178      -2.12810981039433
F         3.19936603230189      -3.79682929011504      -4.03060878923210
F         0.85151428549633      -0.31792755126286      -7.49935271864296
F        -0.68100511911048      -1.79143021236198      -6.93306328244452
F         1.40553198604300      -2.42286864689012      -7.23960206318161
