38
C12H18F3NO3S optimized with DFTB in AMS.
N         2.57559758636834      -0.14442788029554      -0.61312760979451
C        -1.21879111826951      -0.01236780427023      -0.90753546031720
C         0.14903209277296       0.06126971401648      -0.22329421380692
C        -2.33447747397184       0.37262292392636       0.06758569753543
C         1.25198154586501      -0.24223273102934      -1.24126438591896
C        -3.70172489641484       0.33561395957373      -0.62201494248834
C        -4.82119618460951       0.72545699165701       0.34163348384733
C         3.31079892297672      -1.25089584619921      -0.42460948773065
C         3.02793729171495       1.05981066017022      -0.23253735187040
C         4.55859666772452      -1.17430199883414       0.15693623207637
C         4.27273815056041       1.18810198860939       0.35016007592945
C         5.05729447893007       0.06221098664484       0.54952606118363
H        -1.38779666114948      -1.02629143104399      -1.28664627626563
H        -1.22533048530097       0.67500925805237      -1.75841560235628
H         0.29864214039997       1.06755793451515       0.17588380163919
H         0.20826108955099      -0.65328214436372       0.60453500760245
H        -2.33292307956347      -0.31549194716457       0.92088308095812
H        -2.14670841566482       1.38118161200683       0.44987258114699
H         1.21439020330214       0.48212711110035      -2.06045324746835
H         1.14195044684826      -1.25056398668068      -1.64720834694671
H        -3.69667400899127       1.02554451375616      -1.47181292629098
H        -3.88828768646628      -0.67207985269051      -1.00942755829609
H        -4.66287365956445       1.73555644955811       0.72165999625071
H        -5.78316221758952       0.69405698725601      -0.17055606483062
H        -4.85556494258970       0.03771590643364       1.18820223147744
H         2.88501570457041      -2.19031982158964      -0.75627588590805
H         2.37851744898006       1.91443728964334      -0.41873354504049
H         5.13633309276619      -2.07956089567045       0.29396362485773
H         4.62012809560315       2.17266777332295       0.63588585868662
H         6.03945148683850       0.14058619515364       0.99944571680823
S         0.77396230223554       3.25768351635540      -2.30615760470775
O         0.95054318244914       3.08328780137478      -0.86468954418904
O         0.25257866150461       4.52906923622256      -2.71589534113641
O         0.21121477839426       2.08872839319558      -2.96138457188016
C         2.54335450489802       3.22577258882889      -2.89625646713769
F         2.98332198202340       1.94713566805585      -2.85716433570393
F         3.34353536266584       3.91914202796875      -2.08438372518772
F         2.70763788460217       3.66976869913361      -4.12912782712680
