46
C14H26F3NO2 optimized with DFTB in AMS.
N        -1.76856383411507      -0.58846286216631      -0.17584410508084
C        -1.98438356765282       0.81709913462724      -0.66011357192513
C        -2.75663566994070      -0.88854395438977       0.91221449267536
C        -0.39248954755720      -0.70262502062478       0.43455245741184
C        -3.40775064197856       1.05925747239570      -1.13890573829974
C        -4.20353710373147      -0.67463586658686       0.47807010771039
C        -4.41694096946762       0.74836622231471      -0.03688414350355
C        -1.90412807231296      -1.58064980131111      -1.27773408733725
C         0.76717846235322      -0.48987839731362      -0.53627550244603
C         2.09187899744580      -0.51707196347250       0.23460255245928
C         3.26969560838392      -0.31818987719577      -0.72491899513884
C         4.60545688855280      -0.33569435737267       0.02395470216207
C         5.77924346352109      -0.14942755864097      -0.93586456832925
H        -1.28147505693887       1.00004724416846      -1.47091021984791
H        -1.74662073188458       1.47786332779256       0.17855072361089
H        -2.51916769466977      -0.22742531250591       1.75062125688844
H        -2.59715198896598      -1.92379447804325       1.22371104028727
H        -0.34718411407034       0.03635023768529       1.23971059369015
H        -0.33049957062680      -1.70095583390608       0.87782704741559
H        -3.47858388517822       2.11193582701079      -1.42328366831779
H        -3.61242765309924       0.46399256389330      -2.03133508069629
H        -4.48443883928705      -1.39996841260614      -0.28966794050910
H        -4.83568106466445      -0.85584484678642       1.35141593363445
H        -4.29412265284913       1.45782674362402       0.78822908348382
H        -5.43352698439575       0.84856653994694      -0.42334672586421
H        -1.20711289852754      -1.33171479874904      -2.07177968360917
H        -1.69042511635930      -2.57082414822401      -0.88012798484893
H        -2.91361723594913      -1.55026052367408      -1.67595958547519
H         0.77926250209914      -1.27454982162175      -1.29481560430139
H         0.67277567078451       0.46885226830228      -1.04859987816630
H         2.09285545193200       0.27643495501171       0.99021583054061
H         2.19541709662034      -1.47577878605107       0.75513918317460
H         3.15357806054001       0.63723919243738      -1.24612454886091
H         3.26056402990340      -1.11225269566694      -1.47833993581121
H         4.71443377923148      -1.28854821785784       0.55377681906849
H         4.61464578580689       0.46507938441443       0.77160733622270
H         5.79973220947155      -0.95211838242253      -1.67391883911258
H         5.69500319697035       0.80256590690756      -1.46117149409834
H         6.71906401544091      -0.16031333556741      -0.38347445764563
C        -0.26601754746166       0.82613390459861      -5.62483467713005
O         0.90463314043503       0.85919861493058      -5.88531559093116
O        -1.34306498691092       0.97650874538912      -6.13287675858218
C        -0.48222467264225       0.41830350488514      -3.90785853188871
F        -0.02632737745435       1.36771157992305      -3.03224215554265
F         0.13544519670710      -0.73259142759063      -3.49894245371516
F        -1.79164130130777       0.23502658158864      -3.53930697502048
