30
C8H8F6N2O4S2 optimized with DFTB in AMS.
N         0.34127010913701      -0.23378815559276       0.79260450131659
C         0.79475256325108       0.98165208499832       0.45804379546107
C         0.95674037532712      -1.34957983086914       0.37000314276353
C        -0.75891862001383      -0.36749963335049       1.74539564013825
C         1.89460103538676       1.11349049259891      -0.36532844546999
C         2.05564692723319      -1.26940087085423      -0.45822682863483
C         2.53942691720578      -0.02266520760451      -0.83229378572724
H         0.27423279326748       1.83554252976041       0.87124210733366
H         0.55706383525204      -2.29254574498789       0.72012650511194
H        -1.56817967542872      -0.93325103481780       1.28555591647510
H        -0.37926088577293      -0.90095661942803       2.61734288379107
H        -1.10309462868917       0.61955972999062       2.04288405153125
H         2.25434100353730       2.10377239268159      -0.61245684565782
H         2.54807310027025      -2.17920827665090      -0.77553032591231
H         3.41654849538755       0.06055388410729      -1.46214205822636
N         2.80785218429849      -0.16305196081331       4.64478523634817
S         1.77474977970726       1.01523060027035       4.32858794698688
S         2.91313158127828      -1.38871881613409       3.62861772392091
C         0.15396982039660       0.48686459885230       5.11803423822938
C         4.21145445958658      -0.88797912799426       2.37146622593381
O         2.17585980198804       2.17423848539788       5.07250481796461
O         1.40910399468324       1.19815141621780       2.92979372031627
O         1.74149159732858      -1.65708160296879       2.80266836316151
O         3.51059116463765      -2.49584136960539       4.31711216564367
F        -0.84873248648649       1.11672384368627       4.50309687597762
F         0.12206391993268       0.78456920852145       6.40078008461050
F        -0.04103594893896      -0.81808880182118       4.97172634823991
F         4.23753091267053      -1.79269012213639       1.39079587681447
F         5.40918609018034      -0.81947092381392       2.91786454598677
F         3.92276165828630       0.28816580715991       1.82255564907164
