43
C13H28ClN optimized with DFTB in AMS.
N        -0.47084945171284       0.43374626401518      -0.35101458061440
C        -1.67165176533638       0.20108487082147      -1.22074676282038
C        -0.67622202415549       1.69710935837166       0.43868534625349
C         0.70043571014016       0.63203359097722      -1.28449403104541
C        -0.24877034950969      -0.72013621298461       0.59233726082607
C        -2.98623539500606       0.16675734509092      -0.44731589121136
C        -1.95654683761447       1.67388537273488       1.25907161505322
C        -3.17585993045927       1.44408101742545       0.36952622686329
C         2.05727121211135       0.85216668316823      -0.60590316371402
C         0.28270934712021      -1.99243216901527      -0.05837200573523
C         2.50585793975642       2.31914959313473      -0.62667180323116
C         0.33423098184725      -3.10099221304232       1.00158618640970
C         3.75895028815001       2.50166565248598       0.22767162115736
C         0.91059336187992      -4.39063745082615       0.42216810325116
H        -1.51906298144991      -0.73874708381714      -1.75566416012197
H        -1.69795850589379       1.01678006030609      -1.94895489888263
H        -0.70305090163527       2.52141403356347      -0.27890035864041
H         0.18339489579115       1.80492195458024       1.10941857603200
H         0.44608890864685       1.49101146054178      -1.91243094768909
H         0.73242805720614      -0.25035604105464      -1.92711534687772
H        -1.20536603328887      -0.93076335301566       1.07170670965499
H         0.44405731331197      -0.37205807036638       1.36766128663151
H        -3.02697644328151      -0.70822826528036       0.20626933064758
H        -3.79118004853292       0.06758603226962      -1.18082340098277
H        -2.03807451944428       2.64190739160410       1.75933810059992
H        -1.89861016992794       0.90649519395349       2.03445804100097
H        -3.30459368046550       2.29504992378600      -0.30768495574747
H        -4.07645087562630       1.35719798968542       0.98173728826645
H         2.79777927054668       0.24691617019319      -1.13775440049980
H         2.03938211767768       0.50965079056994       0.42887023824713
H         1.29118639551386      -1.83233121258520      -0.44761660496859
H        -0.35752940938950      -2.31070465196181      -0.88772592551310
H         1.71018210724402       2.95854770720793      -0.23287758957424
H         2.70278703660123       2.63058373701390      -1.65907707583235
H        -0.67523640665489      -3.28870529695546       1.38188040739828
H         0.95321083639892      -2.76728074824390       1.83952228245907
H         4.56970737169369       1.87415915753917      -0.14450293094766
H         3.54678107925276       2.22956691705682       1.26097286075030
H         4.08034150728047       3.54264279049689       0.19869746516156
H         1.92794290371473      -4.22759315818366       0.06474280488478
H         0.30131539205595      -4.74372261316558      -0.41123074224024
H         0.93189440533604      -5.16395757256806       1.18964660202943
Cl        1.49420890480748       1.00994588537239       2.71337395781174
