32
C10H15F3N2O2 optimized with DFTB in AMS.
N        -0.30848573192345      -0.65326772186250       0.98343918878736
N         1.75352115791970      -0.03254539582353       0.93811453973613
C        -1.76038233279308      -0.61643268640428       1.09960365237113
C        -2.40184562985892      -0.43913810684137      -0.28067098563471
C         0.51829778798404       0.37236088624969       1.21300153611241
C         0.42348947649709      -1.72284664450429       0.53457815226961
C         2.95375537692511       0.80130037188925       1.01292445840680
C         1.72326925786478      -1.32912157817334       0.50915724885961
C        -2.03431791531544       0.89671061571209      -0.92154370713165
C         3.26911556486286       1.37747507780124      -0.36186641881938
H        -2.02653531315545       0.21137757291691       1.76235901616647
H        -2.08665333339644      -1.55662110705381       1.55211598538716
H        -2.08686418883153      -1.26107550153879      -0.92981767912857
H        -3.48606368899611      -0.50253097210382      -0.15389321374833
H         0.23234881028493       1.34224194462409       1.58216140653817
H        -0.03667922280265      -2.66265598118615       0.28536601529438
H         2.76828794031563       1.59196975551808       1.74466718013240
H         3.77429687234158       0.16340058263359       1.34750560154139
H         2.63364643617821      -1.83960827316964       0.22054567818562
H        -0.95705369774895       0.96572671681668      -1.07599627090631
H        -2.35061733520942       1.72626002333837      -0.28800358795135
H        -2.52858513227629       0.98839467835447      -1.88780735588361
H         3.47808328105437       0.56568505863906      -1.05659098421991
H         4.15895568540283       1.99859524902858      -0.27936226796398
H         2.43714407968963       1.97658815230992      -0.73343975434853
C         5.62215528834580      -1.70133902446802       0.12367627787928
O         4.46808685333383      -1.38088495056162      -0.19922249793835
O         6.27138238082271      -2.71509108276668       0.00871033901511
C         6.36099082637009      -0.46476980063225       0.90253099744725
F         5.77501736884792      -0.27333849936684       2.12053571978741
F         6.19587558046036       0.71038315743753       0.24536881314796
F         7.66963235530632      -0.60566565801262       1.12553118090905
