34
C10H18F3NO2 optimized with ADF in AMS.
N        -0.16897703870069       0.13728274297535       0.13486627161805
C        -1.13138903097223      -0.30888305420309      -0.95784047433623
C        -0.53092732136735      -0.74479683063422       1.34320004709129
C        -2.41543192895182      -0.62298806602081      -0.21451740183847
C        -1.90178227409488      -1.36361567622286       1.02923744264689
C         1.25629656806281      -0.10259327349824      -0.32333476512735
C        -0.39277745542366       1.57358908154581       0.46004060407692
C         2.31413570007665       0.24478652282948       0.71015488049903
C         3.63175435535130      -0.42154902333252       0.31286206222339
H        -0.69662826550725      -1.23867600097811      -1.36001809491495
H        -1.19103650912940       0.47997715544784      -1.72049677912500
H        -0.53563202197154      -0.09743114779728       2.22950779892455
H         0.25654792300097      -1.51378069105906       1.43213610569993
H        -3.07942150233546      -1.24781088428978      -0.82852285212596
H        -2.96976287698741       0.29171575368067       0.05172658936557
H        -2.59021174092542      -1.28492001416669       1.88202219279469
H        -1.76388183121885      -2.42714499048375       0.78975885304858
H         1.38236796225390       0.48440370018374      -1.24880683423330
H         1.28574029037016      -1.18010087912300      -0.56092311604449
H        -0.14498955915810       2.18138269990523      -0.42007917015851
H        -1.44386874880947       1.71830156016793       0.73548354860983
H         0.24990931223026       1.85487378973834       1.30156849992868
H         2.44591795070786       1.33615266888007       0.80725400311326
H         2.01248574934525      -0.15089746419326       1.69355874629006
H         4.42876910824079      -0.16652650974859       1.02577470406967
H         3.49438172726099      -1.51340246024206       0.31425285100953
H         3.95673869501659      -0.10482654324551      -0.69102980802407
C         0.66849540313721      -3.58526652352831       0.15475205724326
O         0.20024509889753      -3.06949857003063      -0.89331641254520
O         1.40974432702416      -3.09466703990768       1.04131186520157
C         0.15724591449692      -5.03608961236862       0.44141923526269
F         0.98624207873678      -5.76258191931251       1.23979760874644
F        -0.05625741055953      -5.76706309460358      -0.68936246971780
F        -1.06017051329709      -4.95547449276429       1.09917822072743
