22
C4H12BF4N optimized with ForceField in AMS.
N         0.00039453164934       0.00055041278630       0.00058981389866
C        -0.91203127276122      -1.11320715975735       0.34344037634517
C         0.65640097022383       0.49736911294807       1.23098404704901
C        -0.77346633295999       1.09731816498890      -0.62405501936891
C         1.02987045414179      -0.47980229803457      -0.94895074771586
H        -0.35774275292378      -1.95509108930534       0.81637073234021
H        -1.70119945198518      -0.78143981699209       1.05540300273676
H        -1.41666794632745      -1.50522746875489      -0.56666251276245
H         1.35058492547064       1.33721228961066       1.00272296912273
H        -0.09582824758445       0.86604448653572       1.96428461660052
H         1.24614828862914      -0.30854231962941       1.72308477369501
H        -0.11209684580097       1.95260957120078      -0.88947759347282
H        -1.27582722568476       0.75258904435153      -1.55605698775773
H        -1.56001724967060       1.47600878425102       0.06690686625535
H         1.73186754051339       0.33872258747390      -1.22566129535982
H         1.62830391977666      -1.30736708238283      -0.50565954911078
H         0.56401550506090      -0.86043480734432      -1.88592289461469
B        -4.59069177669562      -3.29122587620937      -0.77231021557723
F        -5.17131388763027      -3.24215318484073      -2.06696563863458
F        -3.17967124574606      -3.37909346135409      -0.89126295301486
F        -5.07552126483876      -4.43066375098777      -0.07799568475391
F        -4.93528044535659      -2.11558296265413      -0.05405967839979
