43
C11H24F6NP optimized with ADF in AMS.
N         0.26533619696980      -0.37669698697425       0.07942387563572
C        -0.32840582831464       1.00979481820368       0.22203793438285
C        -0.25697787241234      -1.00663495437211      -1.20676454242828
C        -0.09808340478458      -1.21141032252079       1.29528946308282
C         1.77625261865578      -0.26591789615916      -0.07802813362036
C        -1.84982899144541       1.03238283320875       0.15012901127743
C        -1.77250605329448      -1.02442974974907      -1.28398299928553
C        -2.35686363646018       0.38112823098544      -1.13724068016714
C         0.51362150191789      -2.60038157737786       1.33669930240957
C         2.53653745229595       0.29633552675715       1.10962490239104
C         0.06754977835037      -3.32378038595290       2.60752696501227
C         4.03549387777524       0.23177425453318       0.79895866494361
H         0.04012376086598       1.42525794677672       1.17011928652912
H         0.10003703993449       1.59794262696245      -0.60571911726850
H         0.16695451685779      -0.39379936324434      -2.01768111195647
H         0.19666980814061      -2.00265323066657      -1.29724413470734
H         0.20734347406009      -0.61780359000709       2.17070701575201
H        -1.19350342541953      -1.27812934871924       1.31448277398525
H         2.13948683026817      -1.26864389199401      -0.33786215112663
H         1.92813162992258       0.36262826238170      -0.96926538442476
H        -2.29015261420742       0.53919314469651       1.03353292227157
H        -2.16013273756667       2.08925110981932       0.20810744154081
H        -2.03355593341208      -1.46257497713416      -2.26115785730824
H        -2.19942642488559      -1.70502679761373      -0.52693609257923
H        -3.45782222087165       0.35251521195515      -1.14486836321793
H        -2.04593010652644       0.99527785936612      -2.00219875562514
H         0.22247835466826      -3.18529727731180       0.45169222446797
H         1.61189632102983      -2.55115055497703       1.30490888943231
H         2.24533193860153       1.33992721380785       1.31908898822860
H         2.33613929441771      -0.29222161991318       2.02036456418734
H         0.50318952091173      -4.33260690277348       2.63235122608805
H        -1.02825814354022      -3.42886514666541       2.65500347156862
H         0.39558787852006      -2.79177306516258       3.51477450016816
H         4.62211035808243       0.62068926120677       1.64292854556187
H         4.28155473020623       0.82838886298771      -0.09287149159783
H         4.34576054456146      -0.80514745835258       0.60023602183819
P         2.77581154423873      -3.56554231607980      -2.18559467477186
F         2.34529347946451      -1.99173787850482      -2.57444722492443
F         2.33268996622337      -4.05882300043217      -3.68214782397133
F         4.30964468439854      -3.26801798389139      -2.67414676888954
F         3.15858523738583      -5.09301862908770      -1.73972909510250
F         3.16741339892777      -3.02477231611545      -0.63475106585580
F         1.19646432478850      -3.80958615639585      -1.64151609342636
