34
C8H18F6NP optimized with ADF in AMS.
N         0.74495912238787       0.15517769851898      -0.00805682860312
C        -0.42528200438883       1.09833857108200      -0.21156306744491
C         0.37196472644851      -1.22231852480238      -0.54766062640731
C        -1.72042749910221       0.58972676999045       0.40126100515518
C        -0.91831505699060      -1.75517787979209       0.04872770990279
C         1.91420265269132       0.71331110688638      -0.81058874420423
C        -2.08440507612138      -0.79024673049725      -0.14690590939828
C         1.11817955077678       0.09569313297117       1.44326217426306
C         3.21206140494893      -0.05804339423722      -0.69813929609490
H        -0.53663679343751       1.20634420414361      -1.30268335226643
H        -0.12237907090140       2.07078678184007       0.20650061887209
H         1.20883093947787      -1.90007420355394      -0.33351811401623
H         0.27235519127621      -1.08234119945318      -1.63707232607154
H        -2.50337575650225       1.33059162068393       0.17012376858547
H        -1.63871434424489       0.55836232130640       1.50013499624474
H        -0.76362102711239      -1.99463310520693       1.11171535298804
H        -1.11160838876656      -2.72317747354102      -0.44145385754132
H         1.55805613087087       0.74140496400484      -1.85184322527265
H         2.03662750206991       1.75154492947257      -0.46267046362952
H        -2.99013628636909      -1.17066180554529       0.35055257367127
H        -2.32045299778399      -0.70263272194033      -1.22324273446452
H         0.27091110181542      -0.28154941268423       2.02174651579649
H         1.95991654696998      -0.59457980815810       1.57662034764590
H         1.37574143333602       1.11435488710743       1.76530716275549
H         3.92631454002098       0.40029670026365      -1.39872674915668
H         3.64796498646388      -0.01235860921754       0.30748344081220
H         3.10706892285291      -1.11877155586290      -0.96133103014799
P         2.84770701249124      -3.53797281845417       1.66385571430111
F         2.69585776289860      -3.25114977452025       0.00756922202047
F         1.30792570126027      -2.88907741054984       1.86598287276627
F         2.18718641587900      -5.02071810008600       1.46042691455310
F         2.96462207966574      -3.74679611576857       3.28228253250372
F         4.35802913207961      -4.11160005708087       1.42103419164964
F         3.46622797583919      -1.97971027371939       1.82396708543259
