54
C14H26F6N2O4S2 optimized with ADF in AMS.
N         0.43834703696054      -0.00346526669683       0.00082294083564
C        -0.88286468868086      -0.64441100475223      -0.37729933278052
C         0.46340529281859       0.22768759242417       1.50636928186042
C         1.62273024354796      -0.87782829376124      -0.39087139977175
C         0.49993168017066       1.33726878860991      -0.70931638458865
C        -1.18067762542977      -1.92045876175700       0.39181213340577
C         0.18018820420062      -1.03579430566675       2.29828281614616
C        -1.14811094528878      -1.67335858793813       1.89993900595935
C         1.83596597156900      -1.03285754610114      -1.88708065376290
C         1.75249880962771       2.15614319681901      -0.46109948136833
C         2.88414746861444      -2.11575445956346      -2.16339304912934
C         1.69956498889411       3.42818921446401      -1.30703540925334
C         3.17325504427454      -2.25767166994275      -3.65461044100240
H        -0.86515111274376      -0.80869950008146      -1.46338314209074
H        -1.64984534889710       0.11612399127157      -0.15837945919023
H        -0.30432538429114       0.99451414968757       1.70119722007852
H         1.44877564901234       0.63939457474389       1.75503950143442
H         1.45043602284261      -1.85702182360722       0.07106765025394
H         2.50495231744637      -0.44523267489849       0.10208622489896
H        -0.39154528905495       1.89053384364105      -0.37165582149793
H         0.37096048054321       1.11905393647048      -1.78081450586800
H        -0.46860434262841      -2.71548423314733       0.11354992075174
H        -2.17595999480758      -2.26979942865665       0.06857999630578
H         0.18135390562177      -0.74733410450544       3.36204824814224
H         1.01004611657537      -1.74935342957709       2.18250479282254
H        -1.97961098937067      -0.99757833364566       2.17400434374910
H        -1.30606905024683      -2.61669528817247       2.44618885039082
H         2.18256675544039      -0.08299947987051      -2.32824389855485
H         0.89944139327868      -1.31010921077508      -2.40360873175923
H         1.83637092946759       2.42196512837177       0.60282140250203
H         2.65650626151822       1.58050435740665      -0.71140248148454
H         2.52300064634035      -3.07845425242771      -1.75870743990714
H         3.80678553540771      -1.87384348761921      -1.61069887402270
H         2.59169388233293       4.04189219031519      -1.12042741135805
H         1.66354680848560       3.19754771978495      -2.38401585783782
H         0.81627871018014       4.03823469918956      -1.05920015517356
H         3.57104944650636      -1.31821238666037      -4.07069239227325
H         2.26098958984414      -2.51630541199588      -4.21716068069511
H         3.91750936032201      -3.04628721578762      -3.83893301394547
N         3.80789812284971       0.56233236168058       1.92260062663882
S         3.84563975608660       1.83594619179084       2.92049697292588
S         4.97111777119878      -0.56561319791369       1.88819491238249
C         4.85283564844109       3.15535935003861       2.01428891405925
C         4.50576475083405      -1.78367880759238       3.25766022625420
O         2.48924939520635       2.39368667865953       2.89025427089455
O         4.53995027765166       1.66083068141693       4.18540604222131
O         6.31263751960551      -0.12770074145400       2.23547784058670
O         4.72695133413369      -1.34370594843788       0.67285945784186
F         4.72998450112361       4.32316205256138       2.69091122906583
F         4.38334228504733       3.35008285863397       0.74960244601973
F         6.15543176164009       2.83118162867112       1.93699486137206
F         5.29854493879963      -2.87679327272352       3.14992943046461
F         3.20799126066261      -2.19288233996714       3.12784477917369
F         4.65795614881516      -1.25412466005641       4.48385170747741
