35
C11H20N2O2 optimized with ForceField in AMS.
N        -0.02629538966478      -1.32943536054319       0.35577504857790
N        -2.04972974826027      -0.41376734019610       0.24494351043893
C         1.32861965016269      -1.63297613665893       0.81348707938233
C         2.37295781479679      -0.86974670059437      -0.01224797100984
C         2.21696429885642       0.65140587956493       0.13207875759739
C        -0.94210198806807      -0.57510552448771       0.99440650593016
C        -0.57655104698550      -1.66478664270328      -0.82901447412259
C        -1.83176887885838      -1.09480069553195      -0.89852371309593
C        -3.20889729936711       0.41504323580051       0.56508615518174
C         3.30434370666814       1.39435052840249      -0.63752532793010
C        -3.17593624955502       1.70506099902409      -0.24638581536482
H         1.43919595444923      -1.36424593925238       1.88724550582844
H         1.51037230561131      -2.72559405845118       0.72157115154723
H         2.28159162725612      -1.15794206422394      -1.08227668414300
H         3.38456793949051      -1.16981991457474       0.33812268146898
H         1.22725870882447       0.97014781242122      -0.26090958494320
H         2.27691762105413       0.93572896789503       1.20519402081593
H        -0.78633134870214      -0.11392494166122       1.96207866860509
H        -0.09140700374151      -2.25606877688727      -1.59501569589922
H        -4.14267895413927      -0.14595760636125       0.34525717986251
H        -3.20560511396374       0.67160697202020       1.64697516821451
H        -2.52312355975759      -1.15205149386505      -1.72948066425043
H         3.25999763441391       1.13245307574220      -1.71604000509960
H         4.30718816091910       1.13526893447858      -0.23641708328188
H         3.15111677819367       2.48915537783053      -0.53142720796356
H        -2.24723647520911       2.27093416811604      -0.01879657250583
H        -4.05231112625222       2.33472031328949       0.01432169883909
H        -3.20787083284306       1.47700016283375      -1.33277612099097
C         6.79798839701103       0.81867485489342      -3.72421319466448
C         6.26828221584066       2.17510614457405      -3.38007046812501
O         7.00264389425748       3.00352679724729      -2.86666390636335
O         5.10417431495402       2.45895058161293      -3.61270620613556
H         7.61802634329680       0.91610660428282      -4.46653267080054
H         7.19151467534546       0.32780368412001      -2.80945961339011
H         5.99636606736583       0.18155472154301      -4.15561113091021
