24
C4H12F6NP optimized with ADF in AMS.
N        -0.17155280843034       0.32169085318507      -0.35364152131054
C        -0.57233462937171      -0.83006914246881       0.50844507666522
C         0.56623403543019       1.33185983305244       0.48406401659084
C        -1.40142141475886       0.93840472070281      -0.96284060087223
C         0.73056815738774      -0.15127165852055      -1.45671403349437
H         0.32968963327063      -1.28705969869925       0.93500831427315
H        -1.21953877090908      -0.45562722084943       1.31154136157952
H        -1.11573863516798      -1.56138423541300      -0.10274644066705
H         0.90446095861493       2.14346989160471      -0.17142208706017
H        -0.12444625768990       1.72539435245729       1.23932481463828
H         1.40982687008123       0.81628964344527       0.96166909538175
H        -1.10675637815989       1.76109293022222      -1.62664119153670
H        -1.92622026650433       0.15145878386743      -1.52019261645772
H        -2.03278217912589       1.32334687741458      -0.15310359009383
H         0.97790944663718       0.71839788228898      -2.08024129322035
H         1.63672395019847      -0.57553528762189      -1.00562775293480
H         0.19797282648952      -0.91546220266986      -2.03675052267827
P         0.24332308480612       4.26173377513792      -2.28610160638141
F         1.44074775703589       5.06091557498610      -1.50346674690467
F        -0.45106479120913       3.88031171766297      -0.80254098334103
F        -0.67776104576324       5.60435189838208      -2.38501923870551
F        -0.95266376862711       3.35249234912631      -3.02025435004209
F         0.93539867058915       4.54519228765377      -3.73711851297051
F         1.15897324737640       2.82452517785280      -2.15101047395750
