43
C11H17F6N3O4S2 optimized with ForceField in AMS.
N         1.01788099315861       0.35187389807940       0.46116720936631
N        -1.00360959874710       0.35649178032469      -0.46273005248458
C         2.27416346488685      -0.12513151194401       1.03498903867310
C        -2.25424361636898      -0.11419574563822      -1.05383009189694
C         0.00568727110104      -0.40631071419031      -0.00152637714617
C         3.43162754595452       0.04751602604730       0.04510402287582
C        -3.42556387248985       0.07224510269901      -0.08363985669130
C         0.63763267298193       1.63391239375523       0.28687061623203
C        -0.61839302959781       1.63675770526102      -0.28618378847975
C         3.21779334531391      -0.75907452129581      -1.23458249125179
C        -3.24635310223785      -0.74896939902189       1.19294935478187
H         2.18298697484001      -1.19819489237879       1.31345830768921
H         2.49137147339545       0.44324236052026       1.96527781783978
H        -2.16719659750881      -1.18928375244651      -1.32605661538854
H        -2.45301596413860       0.45144093993109      -1.98979635237085
H         0.00505655450938      -1.48946331911617      -0.00558963122361
H         3.55432590146105       1.12262796466305      -0.20792258843193
H         4.36887537130790      -0.30312624229806       0.52607886565915
H        -3.53133735168517       1.14700500025519       0.17846251221125
H        -4.36100335593284      -0.25247792145781      -0.58829370882657
H         1.22676591076994       2.50063314222293       0.55730778377117
H        -1.20232997619620       2.50610088568220      -0.55953178042116
H         2.35037019294465      -0.36296403352500      -1.80351018676425
H         3.04123000273638      -1.82896354150138      -0.99293216543608
H         4.12088597283498      -0.68407008827173      -1.87561635236488
H        -2.38003432564398      -0.37346264993616       1.77767776204543
H        -3.08468107793296      -1.82001297595578       0.94604674661038
H        -4.15678709610126      -0.66277361792578       1.82206679701427
N         7.85245383844371       1.27261752358292       2.64473937059370
S         6.28740808559338       1.76242272445569       2.62918676759089
S         8.34429173034349      -0.10357190602997       3.38921417008389
C         6.01785938627056       2.90438768752252       3.96806037386086
C         8.46702201761298      -1.40759291184473       2.18205060118350
O         5.99819729513252       2.46054328670840       1.33012194170396
O         5.36324782582572       0.58795293202683       2.78750511036165
O         7.37209022139984      -0.50440883125195       4.46383384517170
O         9.69992393578793       0.11973908035487       3.99789912425255
F         4.71611593965767       3.36664323420059       3.92825322965456
F         6.88696375891725       3.97194516826867       3.84773239435681
F         6.24030993643877       2.26600881304026       5.17304325949519
F         8.84919721395744      -2.58149466473439       2.80312783356403
F         9.40811240738394      -1.06748354721116       1.22887542332263
F         7.24161175511962      -1.59076807562654       1.57033685611272
