49
C13H28F3NO3S optimized with DFTB in AMS.
N        -0.47735939438188       0.18373376899263      -0.59191784324603
C        -1.31864366337823       0.46804894978787       0.62378343975163
C        -1.25538181352825       0.42955462868507      -1.85996106892691
C        -0.06654759696334      -1.27163171761574      -0.55974007578914
C         0.71644246984004       1.09389070666460      -0.58128877567094
C        -2.65559744014266      -0.27123768577052       0.68371660249575
C        -1.85578596196290       1.82191135734576      -2.02567024292586
C         0.98115882318534      -1.68653889161027      -1.59069964148282
C         1.67662698596582       0.90610554467732       0.59329440755417
C        -3.37220628609007       0.09650302272953       1.98174583596627
C        -2.63609017384186       1.84505544607647      -3.34218415459139
C         1.15032146385686      -3.20554017511529      -1.53143208974408
C         2.87507011801083       1.83882326885217       0.41664033586121
H        -1.48675943052837       1.54800877890003       0.65408225736094
H        -0.71860185283266       0.19287500290458       1.49454241406418
H        -2.05413435656562      -0.31057031163015      -1.88232060667192
H        -0.58124610454188       0.22008288097532      -2.69116462474490
H        -0.97615983382643      -1.84965470935600      -0.72614843492248
H         0.29704152797791      -1.47996789646735       0.44966626254141
H         0.33748187024313       2.11847980785924      -0.57091639593441
H         1.24556953081026       0.93492492687126      -1.52369022746632
H        -3.28674035032227      -0.00175672814919      -0.16439203685515
H        -2.49975924136495      -1.35047975034121       0.65019320639634
H        -2.53665282000289       2.05403992283187      -1.20272662211420
H        -1.07884773636336       2.59167204851485      -2.05359117080302
H         0.65660755200154      -1.41313906175772      -2.59614152567944
H         1.94193606995204      -1.20320820289707      -1.39022636040859
H         1.17730986389292       1.14117665814145       1.53664599252438
H         2.03193965457627      -0.12499065069567       0.64435671950903
H        -4.32804090608000      -0.42356888036066       2.02628388477518
H        -2.77664866833218      -0.19504253281562       2.84785220150968
H        -3.55743442879773       1.17047335394343       2.03066318532628
H        -3.12557917687466       2.81097300736318      -3.46301943146526
H        -1.96468222953343       1.68370142263634      -4.18497391622041
H        -3.39564371147917       1.06306155487670      -3.34900330340579
H         1.92603094053659      -3.51075642544971      -2.23273544285926
H         1.43866431082547      -3.52400863334627      -0.52863007929626
H         0.21871513485558      -3.69953145099545      -1.80637391695553
H         3.55971550382515       1.71799272148939       1.25519049189960
H         3.40857927638459       1.60577946594385      -0.50514520523484
H         2.54996532198780       2.87893836988537       0.37889032481938
S        -2.39736108811957      -2.79584631667417      -2.80337267034556
O        -2.93073527764385      -2.19074076767255      -1.58046384589594
O        -1.99172464708627      -4.17286194940635      -2.66344434448721
O        -1.43991503832294      -1.93799966866392      -3.49155068943813
C        -3.86141716934122      -2.78984129062495      -3.93331962698134
F        -4.25479994698684      -1.52781938993785      -4.12369027668877
F        -4.87950357954357      -3.46472744914427      -3.41527603850287
F        -3.56720433934905      -3.31334298805036      -5.11603328880064
