37
C11H20F3NO2 optimized with ADF in AMS.
N        -0.66016790011601       0.28715717174601       0.01419570502736
C        -1.71780162725752       0.76820436047802      -0.97576775980847
C        -0.50357785307207      -1.21010935405238      -0.09602326093224
C         0.63231906759497       0.99339929123241      -0.38258145443263
C        -3.03942422303793       0.03804814032714      -0.83442060658299
C        -1.82066621346963      -1.95127073675836       0.08382995970256
C        -2.86706093645625      -1.47709780406197      -0.92469205870287
C        -1.04566355507752       0.69212381713563       1.40990017455070
C         1.82368124520285       0.75509954305497       0.52906583607873
C         3.03848283586422       1.50088146808262      -0.02914693884719
H        -1.27941639373162       0.59193881643029      -1.97207750228219
H        -1.79868000050587       1.85287937183399      -0.78813201125002
H         0.23884989304879      -1.51548507076875       0.65418068103274
H        -0.08920758816191      -1.40059703212509      -1.09976535497150
H         0.37032027348246       2.06571457493579      -0.40728924648423
H         0.85359573727547       0.64530921095219      -1.40500470658458
H        -3.69578091377019       0.41095652018505      -1.63839514258013
H        -3.53319949131793       0.32408713513314       0.10709708862738
H        -2.19220020856016      -1.81929393065742       1.11381753928498
H        -1.61336192515364      -3.02783398267767      -0.03504657125619
H        -3.82724247263936      -1.98776333607738      -0.74798199596987
H        -2.53825543196819      -1.75214692719221      -1.94420011308282
H        -0.31149939003936       0.27236575980945       2.10723708958886
H        -1.07152460998534       1.79783353702524       1.41570456798887
H        -2.04014982660473       0.29873059030535       1.63535868647698
H         1.60798288492602       1.13695059811718       1.53873019930589
H         2.06125768681397      -0.31862709136668       0.61520893678964
H         3.30692979084819       1.13474600886441      -1.03236710016694
H         2.83088768640040       2.57903296224678      -0.10210708693552
H         3.91111079234213       1.36475719178495       0.62618454363692
C        -1.90562807847270       4.38468124204682       0.38238306222865
O        -1.84133882664387       5.54648689426014      -0.02761381003861
O        -1.06613012894533       3.42773654522448       0.33891917890167
C        -3.24735315691654       4.01000216096512       1.12099304095223
F        -4.32436664594222       4.70885282054409       0.67630290927650
F        -3.14533613739304       4.23544180444193       2.47254701136701
F        -3.59120240586055       2.66687591767468       0.99224780629130
