44
C12H26BF4N optimized with ADF in AMS.
N         1.24712239481972      -0.46614972400887      -0.03315072045680
C         2.30155902471381      -0.17435781638863      -1.10341601235905
C         1.91916448464190      -1.47901846888379       0.91214789366338
C         0.89156329071757       0.79565458773673       0.73014800684634
C         0.03753719588755      -1.08701265522759      -0.69536809696353
C         3.10535578654159      -1.45491421264884      -1.21924170900791
C         3.22569958710564      -1.91330973613972       0.23953702843535
C         0.29304478916031       1.89513264618750      -0.12935574107403
C        -1.13751428434630      -1.36707224350400       0.22865948206049
C         0.30586521281021       3.22054235167040       0.63990060050835
C        -2.20785432805305      -2.19503626317395      -0.48929991430873
C        -0.29658322993449       4.36293963256114      -0.17174586225016
C        -3.41966610657913      -2.46420167760636       0.39901038720749
H         2.92791707879405       0.64306653419559      -0.71824825405172
H         1.79127667201071       0.13815051077787      -2.02336554196953
H         1.21105417837341      -2.30284515315656       1.06194505233881
H         2.10973539890918      -0.96368834116580       1.86167210265234
H         0.20926679288955       0.49360236057275       1.53957805276193
H         1.83977049389363       1.13072688329615       1.17574855538769
H        -0.26847935017286      -0.39963525188489      -1.49856014037790
H         0.39452592829420      -2.01762835612767      -1.16415850900724
H         2.59739080517784      -2.20252951693948      -1.85160496151990
H         4.09146332687076      -1.23650769961941      -1.65434323481285
H         4.06030332721269      -1.37434949854016       0.71103468994559
H         3.38734250515444      -2.99688508653878       0.33357463427884
H         0.89778851615726       2.02858829620404      -1.04228084737488
H        -0.73948439934674       1.65046349642615      -0.44044727334765
H        -0.80875142581318      -1.91032949206226       1.13111138177590
H        -1.58412232934226      -0.41851116093641       0.57048558996890
H         1.35379578713077       3.44876186930723       0.89882099495108
H        -0.24564271027494       3.10224660325829       1.59081114237620
H        -2.52659685114963      -1.66615199561591      -1.40579136451932
H        -1.76634971636010      -3.15305978175015      -0.81860235374532
H        -1.35272763809777       4.16783184982305      -0.42013654676309
H         0.25416579513308       4.50303118439141      -1.11586181361074
H        -0.24987512656389       5.31009352018145       0.38468199105131
H        -3.89302583720918      -1.52183345869610       0.71664083310472
H        -3.12800988822219      -3.01675725257636       1.30632558569715
H        -4.17730400353216      -3.06071489872348      -0.12934444634363
B         4.52637728583124       1.51046663227486       1.09873209953914
F         5.49163437319613       2.25532522937818       1.76694070175401
F         3.76775060780038       0.70320648802348       2.02870781487475
F         5.10430730268223       0.63667783559654       0.12802229605185
F         3.58480565728804       2.36624883615240       0.41845483383238
