37
C9H20F6NP optimized with ADF in AMS.
N         0.84536829305379      -0.22467383392036      -0.19465527636014
C         0.18392681663765       0.30698266102086      -1.45690535053977
C         0.20527878783603      -1.56198239185985       0.15789686425611
C        -1.31842125221760       0.45979851053000      -1.30774353284733
C        -1.30989843265972      -1.48289597302094       0.28068879664731
C         0.68718827856423       0.72354930099192       0.97708750812967
C         2.31954772382593      -0.43577746114995      -0.53133379862166
C        -1.96004310842307      -0.88539474397352      -0.96639867034192
C         1.14428316976676       2.14899606936537       0.73566638276842
C         3.11487963634576      -1.19838847138098       0.50670866251651
H         0.41854034677291      -0.43158556928814      -2.23851945357041
H         0.68967735548445       1.24972108847712      -1.70820613569571
H         0.66378273570604      -1.88980367970384       1.10104867419777
H         0.49852453994532      -2.24991951379007      -0.64923811010519
H        -1.69860013114141       0.83196594474824      -2.27371038829739
H        -1.57393868110331       1.22558218493244      -0.55301479700994
H        -1.60759763807159      -0.91957360091546       1.18284847061518
H        -1.65894475516227      -2.51727845733495       0.43549818762379
H        -0.37451207257443       0.71109819747779       1.24929041470468
H         1.24446466928304       0.26637313978631       1.80669234467981
H         2.32910340972665      -0.97996678113179      -1.48562303480042
H         2.72877792331493       0.56943556122701      -0.70306053632882
H        -3.04400818248373      -0.76836114034757      -0.81032688239124
H        -1.81109522759590      -1.57442291274508      -1.81387229452320
H         1.01266348593480       2.70814566982054       1.67520969365577
H         2.20646803987840       2.21804397506218       0.46306461952958
H         0.54431893826473       2.65619523115890      -0.03265219601862
H         4.16970888920645      -1.16675481392789       0.19337803691978
H         3.06125262097682      -0.76612773925121       1.51735018998736
H         2.82578741996535      -2.25765685271241       0.53420944887073
P         1.47193522788991      -3.16831815488349      -3.46261596293365
F         2.94234971575125      -3.60365804479867      -4.02418118951666
F         2.05622414832922      -3.23492385594002      -1.88218701405329
F         1.93494979153541      -1.54696729747694      -3.50269584478349
F        -0.00671440194038      -2.66249343486943      -2.82684165626539
F         0.86619413321753      -3.03080206800922      -4.97360637814797
F         0.98641389636006      -4.72450575666692      -3.34447086365026
