38
C8H20F2N2O4S2 optimized with DFTB in AMS.
N         0.03284887641687      -0.13012603043237      -0.38358007863355
C        -0.84608637170839      -0.54552145228204       0.76574209929461
C        -0.78018099731339       0.14410953713158      -1.62472265959241
C         0.99130765779059      -1.26042413863541      -0.68286240056878
C         0.76981498943254       1.12516723578323      -0.01180401617804
C        -1.73079178384649      -1.75348941310366       0.49392924773528
C        -1.92951373875232       1.12322901166719      -1.44981794005330
C         2.11352898088773      -0.93401734878201      -1.65358387927173
C         1.70577863369865       0.99999062801059       1.18206006194295
H        -0.18404251316675      -0.76978736439764       1.60479798278926
H        -1.45764206049726       0.31982871008967       1.03335491365097
H        -0.08694807795813       0.52750643151525      -2.37404943680198
H        -1.16114570872629      -0.81280804445525      -1.98290239813898
H         1.40434271755259      -1.59479573160011       0.27131035775776
H         0.38774306903974      -2.06489096715027      -1.09789163808070
H         1.33472020594020       1.43247973518560      -0.89456578586648
H         0.01870461850826       1.88918883344205       0.20032922279585
H        -2.32692601728185      -1.92897801654789       1.38952435712681
H        -2.40655619982618      -1.58826711778094      -0.34142888431692
H        -1.14277064992314      -2.64583174820060       0.29305100222622
H        -2.38854582081472       1.25001388709173      -2.43043085111038
H        -2.69107364351694       0.74678194044173      -0.76914274041349
H        -1.59547949124190       2.10073990748698      -1.10458901982970
H         2.56132472181364      -1.88573323006234      -1.94165962657416
H         1.74544233105684      -0.46045350644631      -2.55984070080624
H         2.88145687677155      -0.30665678879809      -1.20257997520009
H         2.21716615325474       1.95577014613983       1.29729008462953
H         1.16348613516878       0.79352909627616       2.10308904955182
H         2.45813875181834       0.22876784852813       1.03288259456387
N        -0.33442705194664      -3.74020846844786      -4.36458290425555
S         0.39409132345134      -2.38124117864318      -4.75241889976683
S        -0.37836193019262      -4.11071278866834      -2.83243914893725
F         1.95049248781519      -2.60895468243476      -4.33982343084087
F        -1.37659715425030      -2.95210629576517      -2.15571559057111
O         0.40257479832569      -2.26267603951049      -6.16821487997636
O         0.02230464382434      -1.22917969104390      -3.97109662956066
O         0.83056416476874      -3.92589684500623      -2.08005527846693
O        -1.11225586917307      -5.31632773599486      -2.66717453055244
