76
C22H34F18NP optimized with ForceField in AMS.
N        -0.01839544503819       1.98778938621431       0.00602810994580
C        -0.70701446983482       2.88816261714331      -0.96952132702556
C         0.64800053790715       2.90989962541847       0.97726463915325
C        -1.02478525560702       1.14467220728691       0.73087043135876
C         1.00742954712694       1.16587430789918      -0.71560876452511
C        -0.21710228798727       4.30365596930768      -0.73460364040326
C         0.13371597496639       4.31404813358683       0.72599839645586
C        -1.76822747502805       0.12302848671202      -0.16322628054953
C         1.77457525696579       0.16387057006976       0.18045527374916
C        -2.88028579671770      -0.58322359188125       0.62198617758112
C         2.89569231779961      -0.52512042036542      -0.60740953018237
C        -3.61337020442153      -1.60345749669121      -0.25763197121545
C         3.64695000867917      -1.53406879591049       0.26977229584029
C        -4.69734551721382      -2.33904138081483       0.53832359416782
C         4.73850432817493      -2.25392569425075      -0.53029977300494
C        -5.44005192280284      -3.34242424892807      -0.33939685328153
C         5.49634721354683      -3.24934634976906       0.34348644641903
H        -0.53688219437557       2.60052968245946      -2.03224052896628
H        -1.81167819505209       2.90242592273937      -0.82221774179426
H         0.47586567176283       2.62998127199477       2.04168553708008
H         1.75303182024168       2.94265837715789       0.83678402101152
H        -0.54166124526268       0.59156534323975       1.56644198724767
H        -1.78098404758387       1.80472262854916       1.21647429846514
H         0.53709743223926       0.59874080294862      -1.54927351734082
H         1.74835012553449       1.84147438659395      -1.20347301560086
H         0.69396038624042       4.49480371162670      -1.34415689850585
H        -0.99578702409318       5.05996051218802      -0.97483424373090
H        -0.78201750205550       4.49345260776327       1.33075985809864
H         0.89743468245273       5.08730513542189       0.95954848783060
H        -2.21484832303720       0.62874778097403      -1.04480571438741
H        -1.06025910043628      -0.65015335002273      -0.52716623019907
H         2.21581117720011       0.68297220691394       1.05696943384102
H         1.08356350139405      -0.62094538052764       0.55183787531805
H        -2.43498821426827      -1.10449192476736       1.49820596205753
H        -3.60860037069171       0.17176491565225       0.99196625879940
H         3.61099737183499       0.24113561270385      -0.97963493336397
H         2.45643076651442      -1.05355903274537      -1.48243263505477
H        -4.08138662613237      -1.07629524797627      -1.11829101863292
H        -2.88272351231090      -2.34411682167874      -0.65171868393864
H         4.11030043083372      -0.99988676708898       1.12859262395921
H         2.92868404101344      -2.28532983539526       0.66654301977668
H        -5.42823969270429      -1.60607058151813       0.94420078320584
H        -4.23256928494782      -2.88191251856049       1.39017304365831
H         4.27885257252222      -2.80125304584872      -1.38210392010409
H         5.45869027120422      -1.51065550372055      -0.93658800245795
H        -5.94270838377741      -2.82035768354844      -1.18134259789758
H        -6.21090561409034      -3.86573618680616       0.26469281923456
H        -4.73379325901379      -4.09783841974627      -0.74523058862031
H         4.80101122798375      -4.01503535434666       0.74893712173955
H         6.27274763564221      -3.76100812862333      -0.26348576595881
H         5.99378269663290      -2.72261475807093       1.18560606917641
P        -1.29377494480704       8.27035039077892       4.75853618667420
F        -1.74199956009349       9.69067285490565       5.62413190270718
F        -1.44436732556909       8.47370549913487       3.05331500856791
F        -0.73663478566895       7.95716320647254       6.35630166585084
C         0.19035530939064       9.43670306518974       4.31473784888318
C        -3.23003071908932       8.29406528946879       4.83380699641845
C        -0.90331230718696       6.38066784169038       4.67218320904534
C         1.07678248435109       9.93150409191992       5.48698164445961
C        -3.98064004604829       7.18580616733065       4.06452522129011
C         0.57835177079846       5.95974833569881       4.67126643023672
F        -0.30442242413813      10.57451611491432       3.68882046601731
F         1.02499083582388       8.81385999102299       3.40650048968777
F        -3.69943284570085       9.49590831584528       4.31094448490554
F        -3.63306657208072       8.20895277682851       6.15972524642535
F        -1.43622126797421       5.87518449576282       3.50114908819657
F        -1.52354847346876       5.72774955171507       5.72795394320909
F         2.09759853161135      10.71165903481069       4.97286527443822
F         1.65518191454995       8.88432683642094       6.17123790582662
F         0.36210808893934      10.71137408766226       6.37812040227838
F        -5.33553368172166       7.46788573423345       4.09101227691899
F        -3.58891710795207       7.13150650334292       2.74005576686554
F        -3.80870056470903       5.95032963367784       4.65631834461723
F         1.20748459302450       6.36271971946321       3.51071562306423
F         0.64544820024663       4.57805533500011       4.71940720245423
F         1.25447745794302       6.44851298354703       5.76768008493231
