32
C8H15F6N2P optimized with ADF in AMS.
H         1.34779326944407      -1.23895457128508      -5.01494487011251
H        -0.35903016313876      -1.43805358077873      -4.51989828478001
H         0.90047808659020      -2.52436269547432      -3.81867038704408
C         0.68317649249870      -1.51048042673452      -4.18771138929438
H         2.58427821633276       1.28349226963394      -0.99034433981671
H         2.94638505724842      -0.00631973551462      -3.43610742017011
H        -0.95113926786621      -0.80342032731455      -2.00898873832464
N         0.89603777441774      -0.56838616744316      -3.09118940414159
C         0.03130973868475      -0.35955401906571      -2.09308543376271
N         0.61896905967501       0.42083548893019      -1.17850406046379
C         1.90613299349171       0.69038992595619      -1.59019726654085
C         2.07962845557162       0.06798427469209      -2.79188496373469
C         0.05034012773996       0.74361096401441       0.13873396880632
H         0.52554506672739       1.68017605392912       0.47068788899097
H        -1.02226151741454       0.94946832562913      -0.00782203605383
C         0.27967530060466      -0.40038192990722       1.11628061072883
H         1.36094864653405      -0.61253592756776       1.17768977287723
H        -0.17406856125506      -1.31763767049796       0.70845372060981
C        -0.28559771861486      -0.09846749568411       2.50109103714579
H         0.19514786824299       0.80687587138982       2.91612864461431
H        -1.36490484813746       0.12818796258431       2.41793089591208
C        -0.07985209967989      -1.27850470880267       3.44921294620750
H         0.99065735869605      -1.51115651422956       3.55599639151522
H        -0.56971779125165      -2.18207744489032       3.05544707378872
H        -0.48928079608357      -1.06710891144271       4.44863648443118
P         1.20526350562126      -3.81784958398354      -0.96081043399178
F         2.58172208187857      -4.69659671340256      -0.87686040885624
F         2.08710527547782      -2.46777536912062      -1.41540400848200
F         1.03175178330531      -4.20931885049791      -2.57441928261107
F        -0.20167017640334      -2.88178557819827      -1.08733877465805
F         0.29214407655747      -5.10557067105860      -0.53318550099032
F         1.35047943170482      -3.35493446886471       0.61646435730140
