61
C19H36F3NO2 optimized with ADF in AMS.
N         0.18732333367528       1.75943972857669      -0.20448874479833
C        -0.54153906196384       2.44165263385082      -1.35624277608673
C         0.65860938170636       2.82753908441269       0.77715856881548
C        -0.69689660160786       0.76720767492399       0.51382949400530
C         1.41108143027357       1.09210545800830      -0.81839143471678
C        -1.67968971546497       3.33646626329122      -0.89880844109503
C        -0.46405598741055       3.73576340472611       1.25010179103380
C        -1.16185796915141       4.40257148535404       0.06581349521740
C        -1.06700160862684      -0.47799589735858      -0.27332675556453
C         2.31162554335827       0.35838649969082       0.15638785561639
C        -2.03608931475483      -1.34967256095800       0.52926291091460
C         3.38734976803735      -0.40315557648301      -0.62350644843989
C        -2.41710279112382      -2.63078329660783      -0.21004804055177
C         4.46365001113123      -0.98613959370033       0.28732152049745
C        -3.39544251776162      -3.50774563197021       0.56989451967521
C         5.54125380440005      -1.75054114296717      -0.47869221576795
C        -3.77446905741786      -4.78071620389372      -0.18252109834959
C         6.62115697367532      -2.31865413743952       0.43826465905747
H         0.23376240232883       3.04670078397062      -1.85450347337909
H        -0.87818366704623       1.64245077778643      -2.03121266443196
H         1.13618676678036       2.29511172230705       1.61022382475555
H         1.41069581898669       3.40441868081896       0.20871405097860
H        -0.16206637774748       0.49116220537417       1.43516376886352
H        -1.60271940223928       1.30959713517124       0.81212933330616
H         1.02612776694265       0.41564090896943      -1.59685150057490
H         1.95687875166741       1.92414108546809      -1.30048212168804
H        -2.09888424889466       3.80383341362009      -1.80585167990178
H        -2.49984098708519       2.75515198097810      -0.44141298325123
H        -1.19292533629282       3.19352064184158       1.87854432135718
H         0.00262726824418       4.49529855991094       1.89904225416787
H        -1.98447578261433       5.04802615385457       0.41156125642682
H        -0.43088953267356       5.03546558130020      -0.46675482299583
H        -1.53961464198203      -0.20835825726518      -1.23315650025355
H        -0.16589197828009      -1.06842434829297      -0.50732251412576
H         1.75327631966358      -0.35400656985551       0.78955138286342
H         2.81007540769718       1.08401746250257       0.81924687397627
H        -2.95125561208696      -0.77185426300020       0.75809794998436
H        -1.57762484414955      -1.61048054858575       1.50172208818213
H         3.85976354031297       0.28491374007960      -1.34456597700624
H         2.91418209881905      -1.21266247961782      -1.21132735675439
H        -2.86267678021648      -2.36876532103507      -1.18843298775474
H        -1.50130542635206      -3.21129948598550      -0.43087924080811
H         4.93648643148921      -0.16061538060300       0.85148119487258
H         3.99835038529555      -1.65558666707549       1.03637460546548
H        -2.94799695057280      -3.77119918368773       1.54569358393527
H        -4.30612359157106      -2.92222575718774       0.79335353963852
H         5.06854585728118      -2.56842473523507      -1.05330043057001
H         5.99992704698553      -1.07199250882634      -1.22037240682174
H        -4.48525985719649      -5.39390243830964       0.39190313638211
H        -2.88492064600721      -5.39851630783861      -0.38606182122412
H        -4.24316307289621      -4.54045598300875      -1.15050162600877
H         7.11947632087973      -1.51287515091770       1.00095977170080
H         6.18719113817360      -3.01907037943603       1.17031429370461
H         7.39304541037581      -2.85990078144106      -0.12950619951211
C         3.18221590789194       4.61411265239932      -1.59939261652589
O         2.07717196918400       3.98239898706549      -1.57243473440293
O         3.47130558423810       5.74291800411307      -2.00283064121364
C         4.36058351028495       3.76110692899218      -0.99687799199932
F         4.57314609997343       2.60546661498116      -1.72490399099671
F         4.07593832401315       3.33941066906798       0.29587200679587
F         5.55043722332162       4.40465195137603      -0.93491540951876
