50
C14H30BF4N optimized with ForceField in AMS.
N        -0.06907478956737       1.48351832913381       0.00829729128255
C         0.53163398788433       2.41052154169581       1.01689685786314
C        -0.74119038604547       2.37570474427759      -0.98547558458596
C         1.00895224379636       0.69909187434658      -0.67765988413943
C        -1.07970676030114       0.60383526685418       0.68084762720086
C         0.01746258060259       3.81214756905805       0.74493659913624
C        -0.29365442525719       3.80096144112860      -0.72478725870678
C         1.76130210974371      -0.30037935630398       0.23559382263751
C        -1.77243396932754      -0.41738386375877      -0.25470057136163
C         2.97069133226776      -0.89569441210538      -0.49577982136464
C        -2.87764700106369      -1.17253218418451       0.49374599009686
C         3.70633168357199      -1.91892881367480       0.37707899173572
C        -3.59310615225370      -2.16988821533997      -0.42467810372608
C         4.87824905778090      -2.53955144877568      -0.37812892189663
C        -4.66577018255657      -2.94424504540672       0.33609590797819
H         1.64257787939090       2.45424743039121       0.94040470991663
H         0.30165948557834       2.12546271953318       2.06909901324011
H        -1.85044639870729       2.36342628591108      -0.87830626569007
H        -0.52376354000805       2.10055998750556      -2.04292701018414
H         1.75250731579316       1.40229207299627      -1.12017132175973
H         0.59235580174391       0.13358043688195      -1.54004695873731
H        -1.86739622791136       1.23826506837612       1.15026855382286
H        -0.61205050981473       0.04598591785770       1.52185833389019
H         0.77272179574981       4.58873340611729       0.99575289829352
H        -0.91288587920959       3.99412459939606       1.32742610248304
H        -1.08542409797370       4.53887529202691      -0.97998951200444
H         0.62678581011011       4.02250982411440      -1.30917452995108
H         1.08478686475394      -1.13205142372647       0.52294631966991
H         2.11099076785663       0.19894420996664       1.16316400210622
H        -1.03574349260056      -1.16079885807387      -0.62272155632210
H        -2.21718302498971       0.09587611697402      -1.13262907405861
H         3.67395187317970      -0.07873026559552      -0.76980606545059
H         2.62476553537256      -1.39213255819228      -1.42905525331251
H        -3.62031809358814      -0.44524992679126       0.88929300943007
H        -2.42824593669223      -1.72013966190427       1.35137764676533
H         3.00709065310441      -2.72847689378393       0.68005044098857
H         4.09040179832841      -1.42235398815213       1.29483383222419
H        -2.85823249946988      -2.89163805993379      -0.84306844876638
H        -4.07205961950645      -1.62542135318577      -1.26756123882403
H         5.39100633440499      -3.27986340591501       0.27091091009099
H         4.51738010326782      -3.06007130953739      -1.29058296315885
H         5.60802141481203      -1.75467820009059      -0.67007894952222
H        -5.17246130917401      -3.65383508747209      -0.35106383767898
H        -4.20777719968632      -3.52164197075205       1.16725594693150
H        -5.42526354255107      -2.24705532074930       0.74969571733700
B         8.46535921516340      -0.90704865719125       0.94218040143989
F         7.60371013446094      -1.94633687287877       1.38164369687732
F         9.31547532764449      -1.39882769495383      -0.08389933333918
F         9.25330257979724      -0.45496325645555       2.03381604848685
F         7.68976730829535       0.17117666824189       0.43863937341610
