63
C17H32F6N2O4S2 optimized with ForceField in AMS.
N        -1.08061737743832       0.82323457068116      -0.20603333898602
C        -1.56970487278981       1.86789229936050       0.75289594672182
C        -2.05310824108510       0.72502100358259      -1.34356048133985
C         0.22227592882700       1.28736116704126      -0.79610003586004
C        -0.92568082104798      -0.48835441381396       0.51627360409044
C        -3.01853529097390       1.64897550806496       1.23135921649372
C        -3.50076842115565       0.43962348232009      -0.90980934436232
C        -3.98427689848037       1.51110965199132       0.06074895160166
C         1.41912872291203       1.37179313853902       0.18419663872720
C        -0.34308828611300      -1.65443658127229      -0.31821339638481
C         2.66735059788227       1.89242424900528      -0.54077981886511
C        -0.21192242921065      -2.91795129018865       0.54323810941510
C         3.87923605407757       1.93459127744907       0.39663579022641
C         0.37219092783634      -4.08106705543137      -0.26628850522557
C         5.11785367584987       2.44719835978166      -0.33207121121743
C         0.48675677865113      -5.34078026631036       0.58628579181190
H        -1.52328897864024       2.87957454548728       0.28768335091212
H        -0.93180784378925       1.90553161074221       1.66243838620144
H        -1.74228212934419      -0.04165681894278      -2.08283422651242
H        -2.07219344003257       1.68482080297919      -1.91180489135721
H         0.09301547838244       2.29789794225834      -1.24929018559626
H         0.51699525528938       0.63233825005520      -1.64605039768891
H        -1.89617917548311      -0.83797366152037       0.91789419287421
H        -0.28902655524202      -0.35375249965230       1.41714102488243
H        -3.32925685264405       2.52029087536391       1.84717227852693
H        -3.08572603125054       0.75054878958569       1.87631268548766
H        -3.59616199814321      -0.56924960840816      -0.45795057293214
H        -4.15576422362545       0.45171373815505      -1.80736230760293
H        -4.06595206562498       2.48544109406260      -0.46908726320136
H        -4.99216336372696       1.23935731661038       0.44275169326283
H         1.19086383120179       2.06098846029375       1.02275463811081
H         1.65747301349545       0.37052446093609       0.59777060125334
H        -1.01076469106666      -1.89081535129776      -1.17117132062138
H         0.66270807093104      -1.39778573156286      -0.70802157671858
H         2.46727608328406       2.91586672366127      -0.92833449278137
H         2.89647925661305       1.22718220473943      -1.40263389638715
H         0.45138885441553      -2.70665922001319       1.41118246732891
H        -1.21493727873883      -3.20690870420729       0.92871433683233
H         4.08906478655197       0.91420073889948       0.78543433217197
H         3.66512050003987       2.60399019214309       1.25810218619129
H         1.38277552456736      -3.80714325199031      -0.64038259281436
H        -0.28113968739001      -4.29693507021645      -1.13972427018768
H         5.97971846187094       2.46482521140490       0.36754656200198
H         5.36636477262467       1.78083990391061      -1.18569390977191
H         4.94428802990402       3.47751393933491      -0.70963770789049
H         0.91487966862113      -6.16392456399175      -0.02356080067448
H         1.15318663476163      -5.15814306074418       1.45615970523103
H        -0.51567982111988      -5.65187979220767       0.95046698251910
N        -4.06294309233466       1.34818199118156       4.23098705797708
S        -2.70951946338716       1.49151656095714       5.14291389261792
S        -5.49435848659525       0.81448655731533       4.82081464321807
C        -1.77980321330211      -0.02579059551582       5.06331408447889
C        -6.53950840710896       2.21851428821681       5.14428264043955
O        -1.86288698459434       2.60488178045187       4.59372045870533
O        -3.06613458854293       1.78932130094743       6.57252184197186
O        -5.29213279833725       0.02793484181083       6.08588418537319
O        -6.15830337556248      -0.05337155759585       3.78930137621294
F        -0.62412813228714       0.10049032876140       5.81040689077035
F        -1.44599453768650      -0.29499224554944       3.75110509897573
F        -2.53805926035172      -1.06680799103618       5.56337345160773
F        -7.74832377382289       1.78865331976267       5.65775708509746
F        -6.76081026247003       2.90853746827406       3.96719077617780
F        -5.92458933525036       3.05529323494963       6.05610147117924
