54
C14H26F6N2O4S2 optimized with ForceField in AMS.
N        -1.89766056809819       0.13812561037064      -0.05567629422996
C        -2.11224288961097      -1.06816255173169      -0.91245259064488
C        -3.02066257397865       0.11519316475236       0.93229219704124
C        -0.59311972052864       0.03200909155438       0.67573259934916
C        -3.49109283644264      -1.62388301189370      -0.61156831083711
C        -3.72779909160931      -1.22192109924802       0.81700884644744
C        -1.98059351334019       1.37173642861231      -0.90328650988674
C         0.66186141257837       0.04302733402559      -0.23067872146585
C        -1.75097888154712       2.68945259968944      -0.14074001749807
C         1.92941612729710      -0.18004245115517       0.60423808526292
C         3.18439323597533      -0.19984308718459      -0.27633157175533
C         4.44584841969252      -0.36113470438177       0.58030668640216
C         5.70132266530990      -0.39644538885668      -0.28437523925424
H        -1.38356564147776      -1.88014579214485      -0.68593001239905
H        -2.01754087861826      -0.85748720152742      -2.00244268761922
H        -3.78239372529600       0.90146054840403       0.72418177520948
H        -2.68717492401124       0.27665225109068       1.98312117671117
H        -0.58170668683919      -0.90735988189044       1.27652267305156
H        -0.49564823027957       0.85622141281979       1.41665092265642
H        -3.53306234293289      -2.72770241386890      -0.73925929569626
H        -4.24675446072018      -1.14136152102453      -1.27065889062681
H        -4.81281638399341      -1.14118438176100       1.04627272461743
H        -3.25432279336903      -1.96074062676796       1.50130677485390
H        -1.25137367646658       1.32670716712383      -1.74127899736312
H        -2.98194401794464       1.42934086642831      -1.38926583827213
H         0.59394219990710      -0.75201762298482      -1.00244870949956
H         0.75548446688288       1.02208086113284      -0.74447558078658
H        -1.97237876277818       3.54268444183488      -0.81593252953383
H        -2.41300731573436       2.77305488171505       0.74483151364772
H        -0.69455101171565       2.78741221359604       0.18151066734962
H         1.85089752509210      -1.14844981278463       1.14600311933239
H         2.01959253629914       0.63694281451348       1.35400722566357
H         3.24955213134448       0.75001996364430      -0.85170387886260
H         3.11521059436467      -1.04528921686090      -0.99622081014838
H         4.52490718312343       0.48857239161531       1.29311948574407
H         4.38519998470084      -1.30551779736340       1.16409157828135
H         5.79765363155662       0.54538769852433      -0.86555324493846
H         6.59594292104644      -0.50664707434705       0.36463226765849
H         5.66112119723048      -1.25774299735958      -0.98458555161351
N         9.97455461182229      -1.75795161874385       1.08023404207610
S        10.62625071149230      -1.58519903219533      -0.41380098807311
S         9.05566899295843      -3.04855051778060       1.50052450922391
C         9.51087897390197      -0.64763018301933      -1.43791307657059
C        10.07796195239043      -4.25354398866200       2.32292208154220
O        11.92590473749843      -0.84018997389899      -0.30170911677952
O        10.86984189176105      -2.92852073918204      -1.04365580207575
O         8.42843933322433      -3.67299653630474       0.28518967707824
O         7.97846592998789      -2.59956503900428       2.44654734126096
F        10.11437210588527      -0.37631900157296      -2.65074398186371
F         9.19193927729863       0.54092601298305      -0.80864607427051
F         8.35778212589348      -1.37556237471399      -1.65643436283036
F         9.31028799359499      -5.34762237126982       2.67372101506173
F        10.62724096785874      -3.69546651535374       3.46177769379210
F        11.09289578696304      -4.65903136519187       1.47720296977988
