69
C19H36F6N2O4S2 optimized with DFTB in AMS.
N        -0.93041999875628       1.44303384949832      -0.39241321963622
C        -1.92147316594374       1.89656935549561      -1.42790250640538
C        -0.45523652261475       2.63891551253455       0.37755345020003
C        -1.54071682023775       0.43930012271673       0.55108705167031
C         0.23255716517293       0.84957948692467      -1.14728805305869
C        -3.08866626083606       2.68264743334125      -0.85177905668792
C        -1.59432115208911       3.44169958230772       0.99872217667249
C        -2.59270042349519       3.89388725874307      -0.06588709378222
C        -1.88334680892257      -0.91568488946074      -0.06350573469519
C         1.35761770274694       0.29392811963906      -0.27987811278597
C        -2.59680933511708      -1.77026568991342       0.99190076666392
C         2.40460016512497      -0.36016606574045      -1.19136589452973
C        -2.83301524230387      -3.18481324974001       0.45666887546668
C         3.54855966143152      -0.96241180186153      -0.37089556771552
C        -3.67410248241466      -4.02390637161826       1.42196990864731
C         4.58813510712688      -1.62637083752674      -1.27956325894692
C        -3.93321223721838      -5.41420629780525       0.84413425370315
C         5.73039220020914      -2.23257784496886      -0.46663687168006
H        -1.37145044363728       2.51474264669125      -2.14154953289000
H        -2.27674228006439       1.00776977016498      -1.94362374943524
H         0.22557053813395       2.28821092623633       1.15536592906982
H         0.10171895518667       3.26660582653668      -0.32391245255990
H        -0.83386122607947       0.30783351608208       1.37430274750014
H        -2.44754932497244       0.89037479185736       0.95684345353755
H        -0.17392693946832       0.06325496842507      -1.78550786907134
H         0.62083015209762       1.64124045352366      -1.79309590681004
H        -3.70194665754049       3.00734747629576      -1.69596013746570
H        -3.71224026892940       2.04696523407182      -0.21817921073248
H        -2.10212524232477       2.85299126710693       1.76716095397930
H        -1.14940122181467       4.31215593510943       1.48813840196784
H        -3.43428828613234       4.40102700266423       0.41104298134896
H        -2.10772178949974       4.60160944957461      -0.74575982683856
H        -2.53527273831260      -0.80223276435678      -0.93194772568147
H        -0.97819169674209      -1.43251610915265      -0.38956198458276
H         0.97720038630431      -0.45590701250092       0.41770314942847
H         1.83009010551799       1.09077509832459       0.30204374301136
H        -3.55491647411865      -1.30391540184490       1.24604376739515
H        -1.99080906411590      -1.81045536377425       1.90458129852290
H         2.80180953263213       0.38852227999141      -1.88450312666468
H         1.92530252624524      -1.14533814348737      -1.78436028545992
H        -3.34715214603309      -3.12011823157855      -0.50480065452766
H        -1.86770933741333      -3.67308520558078       0.28629493783391
H         4.02735220474565      -0.17449828575380       0.22110564071260
H         3.14403774689314      -1.70452498749219       0.32591606649164
H        -3.15704456563584      -4.11152575875627       2.38476015398773
H        -4.63040829745396      -3.51996445020291       1.60066100519011
H         4.10457619240973      -2.41103219929732      -1.87045124179272
H         4.99000210466356      -0.88256526267503      -1.97568330727241
H        -4.56343087762632      -5.99050702767858       1.52212835152424
H        -2.99322772799517      -5.94909062726370       0.70134375361689
H        -4.43530745846771      -5.33363087351939      -0.11986039874165
H         6.23788002462639      -1.46160640306414       0.11497892352213
H         5.35101825635057      -2.99144743736628       0.21898053029982
H         6.45565583447357      -2.69851496813963      -1.13366105989005
N        -2.85992200456458      -2.29321832399938      -2.95186661412001
S        -4.00750444389196      -3.34496630093731      -3.41498697729169
S        -2.57849859897947      -1.10054385554947      -3.96339085264393
C        -3.26928299577887      -4.38648156554622      -4.79473926489830
C        -3.97930136146351       0.14899348518504      -3.77906202998050
O        -4.16820261388762      -4.26679439307322      -2.31867008034811
O        -5.18423866130514      -2.72543414679039      -3.96966674645878
O        -2.52358371030685      -1.41712885380433      -5.36622799942032
O        -1.46237639121506      -0.35278631939814      -3.39679403723163
F        -3.65218529962616      -5.64301328246455      -4.62737559370681
F        -1.94670279702395      -4.33762502380165      -4.74176956578391
F        -3.67769807545178      -3.96901163226748      -5.97491812285868
F        -3.48542659924449       1.37718776411417      -3.97495839257272
F        -4.42133488357100       0.11112038061171      -2.51656048745662
F        -4.98500514595495      -0.03139256601526      -4.59940325295207
