39
C9H20F2N2O4S2 optimized with DFTB in AMS.
N         0.41831298290731      -0.07189342139583       0.12458585293180
C         0.45188938079916      -1.14418785746148      -0.92543850640773
C        -1.04484032833278       0.04369189048065       0.41944592472007
C        -0.73816185288799      -0.84491267369452      -1.82846152269585
C        -1.73430464654835      -0.08363720388233      -0.93899701035653
C         1.17776339234882      -0.49299625777531       1.34524231524883
C         0.95171237302571       1.21555648412910      -0.44603729821843
C         2.68020523163733      -0.65585958415923       1.10728001235267
C         0.94728497453998       2.39651267479917       0.50943787958831
C         3.33947810190589      -1.21960928704770       2.36436183776880
H         0.33119955074891      -2.10329421070546      -0.41597708888774
H         1.40293796315008      -1.12827683024375      -1.45049765315845
H        -1.25026746637724       0.98407027171081       0.92869666973147
H        -1.31598375485576      -0.78606636052093       1.07664419913654
H        -1.16459425816571      -1.77376059997639      -2.20973577481182
H        -0.42420202462887      -0.23805561207610      -2.68009837098669
H        -1.95539123220780       0.90094608265911      -1.35510884018108
H        -2.67529422287520      -0.62534830709380      -0.82987310950258
H         0.74725609285943      -1.44396712817271       1.67215251297323
H         0.98823202605245       0.25311384989264       2.12079918866121
H         1.97537019935855       1.01814259440602      -0.76393804629998
H         0.36141657967973       1.44728595598114      -1.33242018196060
H         2.85952533518321      -1.33122125062787       0.26788087546147
H         3.13579255817601       0.30719361316022       0.86656840223752
H        -0.05165926093242       2.64543620194280       0.86461767173338
H         1.60063733047834       2.22986131714259       1.36455253113944
H         1.33498406225683       3.24871069794178      -0.04899312285312
H         3.17964302677592      -0.55524282423808       3.21429656358513
H         2.93274846156559      -2.20212777415729       2.60665479631969
H         4.41099425880258      -1.31843867402675       2.19637459288473
N         3.81991968720168       1.27518781906299      -1.88708754442522
S         3.58885917683037       2.76944140380271      -2.40186312038784
S         3.25584589692401       0.10180893316332      -2.78885737200635
F         1.95152994538633       2.93305956348053      -2.33881137876601
F         4.19360819677949       0.03964090247860      -4.08862464562486
O         4.04297994579019       3.64184662240441      -1.37146851751691
O         3.91092757685723       3.03600233803312      -3.76018284164903
O         1.92477373869329       0.27903857976527      -3.30487485777552
O         3.51641663449771      -1.12247543748143      -2.08469609680197
