41
C13H24N2O2 optimized with DFTB in AMS.
N        -1.26230026741579       1.07571278007976      -0.06100759018684
N        -2.63116352608299      -0.20291040101539       1.02462150640226
C         1.16022408731640       1.62913806010557      -0.12747671343975
C         2.11750879001111       0.48651914828276      -0.47878118719472
C        -0.16841853313670       1.53342691346727      -0.90323392722005
C         3.42701114241012       0.60665113418682       0.30578053833582
C         4.36055085616861      -0.56977894530352       0.00548041976442
C        -1.57064165077458      -0.21938726149953       0.18869240312373
C        -1.94570733595361       1.87939538543665       0.84343868882469
C        -2.79567677616479       1.08132128279187       1.51733344408755
C        -3.22715919560822      -1.39204145646135       1.61489468849828
C         5.65978647911108      -0.46886404513338       0.80293491824316
C        -4.69186253926259      -1.51121747265959       1.20901589289755
H         1.63535326392718       2.58711527354958      -0.36215124715449
H         0.95019942908346       1.61319436285599       0.94490692604970
H         2.33027054122102       0.50333097756165      -1.55380898814229
H         1.63941496438896      -0.46779399202891      -0.24188885979266
H        -0.45139901885654       2.51547423690688      -1.29426551304916
H        -0.08097916702287       0.84102377750318      -1.74603383175767
H         3.20601237191652       0.62915317347634       1.37831223144969
H         3.92681489284937       1.54774326742986       0.04925072854993
H         4.59082871502734      -0.58984871178792      -1.06543942333421
H         3.85329170782609      -1.50758797385073       0.25571362985150
H        -1.41449407841288      -1.00020804010649      -0.53981321725030
H        -1.77723436582358       2.94073596011152       0.89163828763264
H        -3.50900238522874       1.29982806470948       2.29161955139870
H        -2.65658955761093      -2.25603394199315       1.26617684903551
H        -3.12255211215525      -1.31677969948111       2.70136649581041
H         5.45089143853393      -0.46837077407922       1.87378582232096
H         6.19192716996981       0.45049761750793       0.55354319469360
H         6.30638642622379      -1.31698414449505       0.57578681889844
H        -5.25392701404251      -0.64232961271291       1.55115189181352
H        -5.12135476686807      -2.40598824727435       1.65804736413754
H        -4.78295142324981      -1.58132814117656       0.12474076879481
C         1.29500739999326      -1.25716446529078       3.13524293117077
C        -0.06147896575433      -0.89016091172346       2.50293482941212
O        -0.99387893007064      -0.60014869182674       3.23843704596047
O        -0.05092809507798      -0.91936521613684       1.22487590226943
H         1.86696929907530      -0.33789561396766       3.25880041615596
H         1.13138539976068      -1.70629078530126       4.11227530424996
H         1.84795227805936      -1.93646049015718       2.49052466048906
