41
C11H22F3NO3S optimized with DFTB in AMS.
N        -0.25574261496588      -0.28978566124332      -0.30500872074014
C        -0.88097162460786      -0.28332599848340      -1.66964596775650
C        -1.21574333512389       0.53516594025221       0.49273787198491
C         1.09452863573163       0.36878875517234      -0.36481268840015
C        -1.37879928544653       1.14283240209625      -1.86196365942965
C        -1.62533070537216       1.67541684611423      -0.44037384297678
C        -0.17086517952501      -1.68568248540695       0.23552301008905
C         1.83522470633739       0.48714389092041       0.96262673559383
C         0.77748360162517      -2.58417056260022      -0.54600271858754
C         3.22267678062289       1.07996320583046       0.67573230669071
C         4.06441009104780       1.15471013662104       1.94672789039226
H        -1.71138604492904      -0.99322811146288      -1.65134337134373
H        -0.15318970533803      -0.58722142697863      -2.41887162449092
H        -2.07241511524135      -0.09768093178623       0.73748659623463
H        -0.74454985922057       0.87037524159988       1.41573951738092
H         1.70105614516519      -0.21704331791282      -1.05045613782470
H         0.95327213171144       1.35615926476329      -0.80499618024385
H        -0.62507379495749       1.73698712705939      -2.38313786035919
H        -2.29166025732520       1.14768406071858      -2.45908941854854
H        -2.67429340330066       1.93043230931070      -0.27979357411042
H        -1.02599120841345       2.56720896372802      -0.24755463477833
H         0.13670516378403      -1.61203752935146       1.28155832009797
H        -1.18475095845242      -2.09485694262573       0.20479469478804
H         1.29984319467850       1.13239757385748       1.66643441904370
H         1.95679793254859      -0.49489355954944       1.42786881649574
H         0.69573363001646      -3.59076322980618      -0.13647217625405
H         1.81189482709842      -2.25823788938661      -0.45582787872235
H         0.51872683626152      -2.61515985841903      -1.60279283490850
H         3.73090559796430       0.45943727286172      -0.06871414033327
H         3.10566415779544       2.08248943283859       0.25251281074426
H         4.20886383611040       0.15970727934733       2.36980374406015
H         3.57837882268078       1.78367926639096       2.69429791220852
H         5.04142159215129       1.57923272033674       1.71718630528747
S         2.19010608025170      -0.52997166310800      -3.39978016751381
O         1.56474905759777       0.78144047997074      -3.25898420093937
O         1.23120685350663      -1.60906339526307      -3.60000667850101
O         3.19636499473298      -0.81688783950005      -2.38919795691168
C         3.12702646656113      -0.42798267121410      -4.98815385679513
F         4.04742759555566       0.52605268484549      -4.92199191396014
F         2.30531367862078      -0.14841424989831      -5.99291436560466
F         3.73263431706168      -1.57873406123944      -5.24915905095778
