52
C14H18F18NP optimized with ForceField in AMS.
N         0.03961615441585      -0.00013731851987       0.00232205621667
C         0.96098014951778      -0.84901454460752      -0.81467885104221
C         0.94027421639480       0.86315381742883       0.82626349913208
C         2.36968886646348      -0.30917898247370      -0.65469519638264
C         2.35115852177793       0.31953712316979       0.70985027195164
C        -0.79157037683493      -0.85822734885969       0.90750917877635
C        -0.79957886062597       0.84450131816402      -0.90812096603114
C        -1.78165920196606      -1.78446708640386       0.17807312495012
C        -1.80521677011508       1.75852370410462      -0.18498400918728
H         0.68869171919730      -0.88188920451461      -1.89445102369665
H         0.98090673017643      -1.90648194376907      -0.46398224548248
H         0.64005809596440       0.91754505253001       1.89720255334475
H         0.96918059290928       1.91366020016024       0.45527236355985
H         2.56652505573711       0.46764949842776      -1.42651535802820
H         3.13527466568993      -1.11220754442863      -0.72605233891280
H         2.52345383531666      -0.45849150363625       1.48579536770715
H         3.11627621732453       1.12057549814222       0.80409427787252
H        -0.12898093676711      -1.49392204463401       1.53916401231686
H        -1.37081626788646      -0.23266743147566       1.62180062952112
H        -0.14347349078255       1.48875787415315      -1.53770490013120
H        -1.36603312218989       0.20956452430223      -1.62439860931529
H        -2.22163345277556      -2.49444271001155       0.90982005356973
H        -2.61662073319841      -1.20539366797117      -0.26589639013577
H        -1.28498935037736      -2.37533907999023      -0.61767132003030
H        -2.25331133718942       2.45946834460005      -0.92063055374294
H        -2.63294223774663       1.16895806264076       0.25861703145799
H        -1.31857268466674       2.35946208574009       0.60947078973366
P         4.86073228343557      -2.53388586986931       5.58803605892017
F         4.24667058731986      -1.65680247547476       6.93698554491610
F         4.00525481061293      -4.00918087913868       5.33756822182084
F         5.61214182937148      -0.99430949532580       5.42496553734590
C         3.15912654737021      -1.93693023273839       4.87323724169618
C         5.61449931271303      -3.35078888785667       7.17694196003202
C         6.21071809377463      -2.89927207098051       4.25511463816810
C         2.92472624386785      -0.40660509692227       4.77486532712284
C         6.46926990632292      -4.62205094600391       6.98268133200252
C         5.98415232790091      -2.33308170056482       2.84043374357482
F         2.13617019269351      -2.43784179573844       5.66938963146157
F         2.97270934932904      -2.46024283778593       3.60842957105807
F         4.58653816557225      -3.72094239794748       8.03974213042178
F         6.41505555559008      -2.42185279370123       7.82741690512107
F         6.31407220652184      -4.26914905636910       4.09555518696913
F         7.44185073465034      -2.43796198384562       4.69998400644422
F         1.68488206686848      -0.18565159833698       4.20174721442036
F         3.86807133054194       0.21151590080273       3.98275373959913
F         2.92094161039450       0.19372154643973       6.02074858100012
F         6.77309885658214      -5.14645691368311       8.22725226809051
F         5.78334577398999      -5.59116785796662       6.27495060093349
F         7.66649055982753      -4.34072146100265       6.35542385041434
F         4.93729926142830      -2.97811980709187       2.21178934204267
F         7.12227950600962      -2.55971092107441       2.08631974888677
F         5.75711925124774      -0.97473351009184       2.85601866044569
