34
C12H16F3NO2 optimized with DFTB in AMS.
N         1.45444811106143      -0.70814070146629      -0.75417881677643
C        -0.80776665084650      -0.06079184407967      -0.04881813309843
C        -2.30388919386709      -0.30669636696037      -0.26099697148671
C         0.02967863586393      -0.95709762825364      -0.96818304121901
C        -3.14945013932823       0.58587089261282       0.65315315791342
C        -4.64274796137925       0.34178511037606       0.44275599315346
C         2.17860511792911      -1.51190083671900       0.08161781290072
C         2.07711047218677       0.25229058000235      -1.58907309033341
C         3.47591456223330      -1.25526957970735       0.36190452695864
C         3.42674515673450       0.63755091835553      -1.12813988992108
C         4.09377110277772      -0.10944514446294      -0.23007135346643
H        -0.53903359463472      -0.26668024584369       0.99215892293934
H        -0.57188772705069       0.98836962252759      -0.25408960446297
H        -2.53188189603947      -1.35876877688062      -0.05762198691207
H        -2.56030227255466      -0.10615166041132      -1.30697918226792
H        -0.17627248784655      -2.01068758562495      -0.75855687636745
H        -0.20558842756687      -0.75892166448388      -2.01799345252923
H        -2.91953271248260       1.63699794970785       0.44844160772472
H        -2.89073804550980       0.38446103539692       1.69822075690192
H        -4.92358124963487       0.55687237147659      -0.58917458469359
H        -5.22320248730192       0.98693313227193       1.10254155992154
H        -4.89500122676151      -0.69671272973039       0.66174813512827
H         1.62774793285096      -2.32549002517056       0.53998499211466
H         1.41426849604508       1.10698084764017      -1.77341838503789
H         4.02763211733013      -1.88335457990900       1.04688817648164
H         3.86334980177982       1.51134239696662      -1.59332347507532
H         5.09486989682050       0.16553138232179       0.08032056041543
C         3.15767368817408      -0.73689883208589      -3.64990463449559
O         2.08399616181087      -0.38955258094127      -3.00960492912712
O         4.30500550933939      -0.50850075237050      -3.41035803467927
C         2.73505611776014      -1.57802970305819      -4.91860378975793
F         1.92112992717420      -0.87281396803665      -5.70872563491539
F         2.08279195426286      -2.68421921952272      -4.54384102240754
F         3.79288382006993      -1.94391481763733      -5.63337856542296
