37
C11H20F3NO2 optimized with DFTB in AMS.
N        -0.30319444006655       0.60254404004290      -0.18209583133568
C        -0.69705095910889      -0.68898928424471      -0.84674800574313
C        -1.12082629403830       0.67833983744092       1.08906159722035
C        -2.08298315349320      -1.00595427556681      -0.31075348094022
C        -1.95173748838316      -0.59843626628094       1.15333883742647
C         1.16579961595848       0.57540694054385       0.16927255085511
C        -0.62253791548765       1.75466219400042      -1.11496190298910
C         2.09787345966664       0.23886487246120      -0.99537408811932
C        -0.80390416653462       3.10598373456132      -0.43888926569882
C         3.51647355104119       0.03000734798651      -0.46423980810605
H         0.00479658980191      -1.46343311993586      -0.53113498193468
H        -0.64949016096160      -0.57489182618109      -1.92867188070942
H        -1.77119168626907       1.54928913977382       1.03510278017879
H        -0.45092000827735       0.79491887082186       1.94036027764312
H        -2.32210726278584      -2.06249430351393      -0.43303647919522
H        -2.84608144370818      -0.40719324910387      -0.81415262454964
H        -2.91733550833596      -0.41366167803527       1.62493806850160
H        -1.42733328571013      -1.37466394537363       1.71648393067463
H         1.27459915657551      -0.17403390429128       0.95879546338657
H         1.40834996367395       1.55819882548546       0.57468670723294
H         0.20625846355781       1.81264300013018      -1.82071312225945
H        -1.53539714917457       1.48321754421255      -1.65149735760458
H         1.76664563523266      -0.66972620546193      -1.50726453535930
H         2.11027386407009       1.05927475901396      -1.71617434278893
H        -1.81563238347415       3.23824621929282      -0.05445248744899
H        -0.08814255730486       3.25029885258400       0.36407054843568
H        -0.61204490631493       3.87220435967110      -1.18825684885668
H         3.90096762045128       0.95535393752251      -0.03633781174335
H         3.53608170854359      -0.75261827661782       0.29624136038225
H         4.16661099815938      -0.26444309994070      -1.28700890034557
C         2.81896812647546       3.49296076648468      -0.30076024876466
O         3.99799241128330       3.19926522067533      -0.26981245399481
O         1.90120589229559       3.22916449613687      -1.08596304288348
C         2.27793144824225       4.30124950002427       1.00969850968724
F         1.35751686885561       5.24154172209748       0.72447158190312
F         3.21285337161209       4.87488594024507       1.76823055599984
F         1.62975048573223       3.39454409973882       1.81629523524337
