41
C11H24BF4N optimized with DFTB in AMS.
N         0.49839063304524       0.31379601454973      -0.11035104253599
C        -0.63554966968375       0.26755043300540      -1.08402907719578
C         0.13810737802825      -0.49141837928325       1.10467458379117
C         1.73671861214474      -0.25675849545657      -0.76244695474774
C         0.81025241663717       1.72735933867281       0.32155105464112
C        -1.96280685713048       0.72708729076967      -0.48572380670057
C        -1.14056286390460      -0.00150759375782       1.76804523694336
C        -2.30672273911816      -0.05590174082477       0.78153795826557
C         1.78379417136308      -1.77635320357437      -0.88934563605238
C         1.48943139099785       2.58352391164648      -0.73588833443510
C         3.00104833715210      -2.19020655875698      -1.72967162125557
C         4.32512849002454      -1.82310796258865      -1.05970062210039
H        -0.72342819478969      -0.76797415440372      -1.42271722141844
H        -0.36954742119516       0.89196991253602      -1.93971607692115
H         0.98566226410858      -0.44362021854264       1.79107629750519
H        -0.00818930389761      -1.52327308210297       0.78067118148252
H         2.57668710877482       0.07411684125993      -0.15174511407030
H         1.80625486065269       0.20184166401379      -1.75193526567352
H        -0.12639676977479       2.19365697730039       0.62730274531017
H         1.46461729918241       1.64559796031646       1.19274717756964
H        -2.73493839427399       0.56496709884249      -1.24291537291156
H        -1.93491282978776       1.79821278088604      -0.26937102082159
H        -1.01883472857589       1.00956324498089       2.16282705137039
H        -1.34226307147874      -0.66357309180307       2.61382671168550
H        -3.20436977975683       0.36702610863182       1.23886046185740
H        -2.51644473289646      -1.09839689436856       0.52050851781118
H         0.87641925289489      -2.16381505229782      -1.36354722969361
H         1.88413090956791      -2.22582042152709       0.10078761553592
H         1.47698528919728       3.61240417491715      -0.37632936045567
H         2.52832153501447       2.28726590956753      -0.86794456134722
H         0.97472546107179       2.54948356635536      -1.69577427487523
H         2.94133949256257      -1.72543379863647      -2.72063707025755
H         2.95520825824940      -3.27502491295770      -1.86890599621601
H         5.15015208782982      -2.28879690080244      -1.59917204840778
H         4.33650130787925      -2.17097221009698      -0.02706526913102
H         4.47861130818072      -0.74492388452848      -1.06068894420892
B         3.39282735402941       0.31602373354039       2.22571649264585
F         3.06927420236422      -0.97091816001357       1.71466661275153
F         3.63240189830463       1.15713461458485       1.10534549349088
F         4.46145995759707       0.27310793718033       3.06593376055403
F         2.22546125700910       0.80510410026643       2.86610493742169
