60
C18H39NO2 optimized with ForceField in AMS.
N        -0.00203185525475       0.00260422353468       0.00056925150954
C         0.84954735018754      -1.02497790456296       0.69945216881349
C        -0.87285271267584       0.67938949124674       1.02656114600185
C        -0.82699744108132      -0.69622560852223      -1.04855903957891
C         0.84142873356958       1.05166540752178      -0.67600699424124
C         1.89884432365556      -0.47307088015682       1.69896422163721
C        -1.94654169194028       1.65086156915703       0.47098237787760
C        -1.89203133215127      -1.69337446064218      -0.52260121100445
C         1.93703410090960       0.52424549661049      -1.63745782021867
C         2.70381113719646      -1.62190610371278       2.32202934359170
C        -2.76830566901634       2.25847452710793       1.61598053854822
C        -2.66388545560713      -2.32313769633548      -1.69012255483885
C         2.72396046025932       1.68843899904971      -2.25388644565523
C         3.73270583085107      -1.09991365278352       3.32074588739610
C        -3.81669240790779       3.23400873241457       1.08849676131438
C        -3.70447219771152      -3.32194929580986      -1.19164547519183
C         3.79174301571868       1.18381499298588      -3.22067647425048
H         1.37538405858654      -1.66697173759951      -0.04232955672176
H         0.20700151109524      -1.71770674161263       1.28427666779770
H        -0.24654198825310       1.28034738826784       1.72047451814216
H        -1.38043049166133      -0.07529124554111       1.66786244264813
H        -0.16721794430176      -1.28232100883859      -1.72379927775436
H        -1.33480595290249       0.04519755421603      -1.70494626258867
H         1.32635834022092       1.71019927939798       0.07884411940188
H         0.19841160120454       1.72406963071539      -1.28370209366392
H         1.39761704772189       0.07686909659963       2.52121375640510
H         2.60965977708331       0.21275672574036       1.19594232226160
H        -2.64420594212439       1.12669980943816      -0.21271792394865
H        -1.46579562039664       2.48324216864324      -0.08194082377521
H        -2.62244162993435      -1.18562573131225       0.13893520961651
H        -1.40772721687650      -2.51297587737740       0.04595542766693
H         1.48154231443009      -0.05617435368816      -2.46511669803899
H         2.65394205407130      -0.12527940284971      -1.09896832224492
H         3.23342434486520      -2.18714147932482       1.52389240947257
H         2.01640970895436      -2.31900244656366       2.84986210812764
H        -2.09516610319286       2.80185441036362       2.31495494701653
H        -3.28260576214018       1.44988892975953       2.18014523286010
H        -1.95697213271296      -2.85218455810034      -2.36641187481451
H        -3.17964491454495      -1.52845088682143      -2.27240231741205
H         3.21753518388607       2.27633150273635      -1.44928580095087
H         2.03109419647927       2.36024025903975      -2.80647497299299
H         3.22954576235561      -0.53542520172080       4.13469823427996
H         4.46274541640125      -0.43658983979167       2.80999559343792
H         4.28138351326579      -1.95478575513470       3.76913462832854
H        -4.52806527458492       2.70880094360321       0.41617308938195
H        -3.32829395475839       4.06232403290803       0.53203923675033
H        -4.38409430859807       3.66519852220797       1.93997581146857
H        -4.44808267190273      -2.81210782869319      -0.54279003745196
H        -3.21377339245869      -4.13714479523214      -0.61809740030783
H        -4.23543656761155      -3.76841805035438      -2.05860069850736
H         3.32354289882746       0.60525356911755      -4.04553992617258
H         4.52124646220603       0.53837357002104      -2.68708740677976
H         4.33545254201278       2.04772917614652      -3.65735216809554
C         4.61713373107727      -4.32027166558257      -2.69400649812673
C         4.90536885122174      -3.15617467731388      -1.79978386352436
O         5.86122209687892      -3.19066152399559      -1.04222423920697
O         4.18820830300318      -2.16967546534371      -1.82530577262876
H         5.47381915748972      -4.48323973901534      -3.38125868248709
H         4.46187529602752      -5.23261057441150      -2.08060471255706
H         3.70279914998827      -4.13379090270606      -3.29745522092166
