26
C6H14BF4N optimized with ForceField in AMS.
N         0.55477221039665      -0.01167247491948      -0.05045791409745
C        -0.34286624886060       1.06079296104194      -0.55953335762307
C        -0.32805693090875      -1.08522341045979       0.48321265703485
C        -1.75415532932433       0.74007410851510      -0.10118086471906
C        -1.75433575517407      -0.75630703700624       0.07919389734207
C         1.42992358453401       0.51386990754155       1.02268158837613
C         1.40478897138751      -0.53560398954786      -1.14583811700530
H        -0.35049441586177       1.10464065826371      -1.67400610348966
H        -0.05151360736522       2.07747322204839      -0.20767338753629
H        -0.29482418640402      -1.14058400861709       1.59703086525960
H        -0.05389836740115      -2.09974811607636       0.11253093573100
H        -2.51356202077873       1.06077625090756      -0.84773392467574
H        -1.95479315729653       1.23663717543072       0.87402848988051
H        -2.48743721679194      -1.07371283290883       0.85307651307759
H        -1.99343298692369      -1.25081740928413      -0.88828568031466
H         2.10270860075223       1.31231573444878       0.63617168852198
H         0.82472722528213       0.94778593789654       1.85034259759566
H         2.06281971719510      -0.29803257024057       1.44527329781612
H         0.78071266589803      -0.98047610093137      -1.95316122845867
H         2.01907866971178       0.27804630331781      -1.59321592187509
H         2.09456143966491      -1.32582837793296      -0.77247620167606
B         3.31144855542053       0.91066139686016       4.05186710828152
F         4.05481372825300       1.11570889126339       5.24410751636722
F         2.45512265770076      -0.21119680097806       4.21454430402888
F         4.20370707793333       0.67274027700776       2.97234247707433
F         2.53169678426084       2.06539361165933       3.77545357008359
