43
C13H27NO2 optimized with DFTB in AMS.
N        -0.55517098789401       0.00419918274614       0.00529981976672
C        -1.49347290492397       0.74858483748690      -0.89418423374717
C        -0.96128843455771      -1.44402510210874       0.04177434909375
C         0.81901176859447       0.10846923204808      -0.61013604539177
C        -0.54463584544625       0.55954183421654       1.40656455660818
C        -2.94561010318148       0.62659668330126      -0.44972497582984
C        -2.42382802336738      -1.65759492455475       0.40975620540407
C        -3.37058964675307      -0.84071059738153      -0.46360709958480
C         1.86636924476163      -0.83200578690481      -0.01537097385848
C        -0.37539942314058       2.06600600143167       1.50476248783013
C         3.26903398505792      -0.38060960837375      -0.43624042532901
C         4.32930339391675      -1.29863029307005       0.16880613154906
H        -1.38271037002177       0.32220051831717      -1.89584403486218
H        -1.17415785141091       1.79191051006811      -0.92609469854727
H        -0.34418794298212      -1.92943163156832       0.80046427239075
H        -0.74668599979839      -1.85765680888924      -0.94785534057640
H         1.13578594483739       1.14816400434523      -0.49862766721897
H         0.70498973981040      -0.09713199879403      -1.67894585092628
H        -1.47360818425182       0.25515551986223       1.88657191460001
H         0.27083156607746       0.05162439712365       1.93634689007682
H        -3.55742535485242       1.20464699662310      -1.14766580554910
H        -3.08151033950659       1.05174700118031       0.54741971127785
H        -2.57061433766902      -1.41984580576140       1.46563986429286
H        -2.62945478443577      -2.72397682102506       0.28691953225364
H        -4.39273474393624      -0.93330638160800      -0.08928168978189
H        -3.34989105688663      -1.21446614516021      -1.49356105566496
H         1.69452737952200      -1.85173115993360      -0.37017983944419
H         1.80730096265025      -0.84266144407069       1.07645012228551
H        -0.26663125574867       2.30313908744344       2.56312705281962
H         0.51754884376241       2.41780217352967       0.98934731289629
H        -1.24091433512064       2.60930342611534       1.12498972669335
H         3.43889514533574       0.64610887644832      -0.09406572112455
H         3.35187955086362      -0.38813198702761      -1.52928319349505
H         4.19764580651946      -2.32083153069947      -0.18805141825706
H         4.25258409496796      -1.29799681871729       1.25622345505923
H         5.32499140151093      -0.95595075179835      -0.11318221224767
C         0.50322762671119      -2.76873174742636       4.66884127478044
C         0.28408206724363      -1.88123289317575       3.42176152698283
O        -0.85833355992841      -1.89021949035397       2.91338732149626
O         1.26831236186266      -1.21767994465013       3.02849335693620
H         0.37867984109350      -2.14688344031694       5.55529251944870
H        -0.22837942773814      -3.57398015705412       4.69320364606233
H         1.51366737655259      -3.17344063556295       4.66340136963205
