42
C10H22F2N2O4S2 optimized with DFTB in AMS. Optimization did not converge!
N         0.05811577794800       0.51916464480018       0.41824022953459
C        -0.84720059881317       0.34829836812491      -0.76527529403069
C        -0.34540414191642      -0.46003238205916       1.48837782729525
C         1.45182947281884       0.17137908667313      -0.04456602745657
C        -2.32376776638342       0.49348682448517      -0.41468631267824
C        -1.81320124977570      -0.34898360074749       1.87827321028937
C        -0.00624122824684       1.91881201033661       0.96948750707906
C        -2.72248736214440      -0.51239742168441       0.66394662515280
C         2.55099708314686       0.32506286669406       1.00518429352914
C         0.45281105273927       3.01820834104268       0.02701646176276
C         3.89574528750243      -0.03891759011758       0.37818976103705
H        -0.66111423706620      -0.65324300413947      -1.16398999128515
H        -0.55263301807983       1.08264665721330      -1.51741798635426
H         0.28453273810207      -0.27762566315072       2.35896835796269
H        -0.13461351353867      -1.45957258439834       1.09757401398914
H         1.66706643757412       0.80200981822558      -0.91086327803090
H         1.41093285510932      -0.86692483384247      -0.38681448952164
H        -2.89597888038728       0.31254603871991      -1.32844978959037
H        -2.54232932916415       1.51126048215336      -0.08224120274698
H        -2.00638757313862       0.60418106995468       2.37422872047117
H        -2.01116763700990      -1.13841317973548       2.60714773056553
H        -1.03671588222628       2.10594817875559       1.27188534006373
H         0.60943587639210       1.92606303094752       1.86612120770940
H        -3.76254827440872      -0.34799871067264       0.95402589656235
H        -2.63543427441769      -1.52919356693460       0.26670389036860
H         2.59581452054942       1.34944816764754       1.37581492860609
H         2.36214588000472      -0.33181804598414       1.85625307834653
H         0.47921053278193       3.93899807232617       0.61080135653731
H         1.45696083995040       2.84219845032488      -0.35283173653906
H        -0.23118503846530       3.15435877792325      -0.80953901234795
H         4.67971577729786       0.06287855053644       1.12712790595955
H         3.88983852206740      -1.06810438142713       0.01632419881041
H         4.12407028389803       0.62464873075591      -0.45678881481511
N         0.19620172149680       2.91741983424176       3.92299414746084
S         1.42554994491784       3.90534511640430       3.70527283250437
S         0.51556457605135       1.46270929449000       4.47020381633173
F         2.25834099507353       3.19269692150364       2.46304466851884
F         0.85163909985051       1.66639176561168       6.02655754125484
O         0.91157128031648       5.08953955122398       3.10234028913074
O         2.38521170642485       3.99288333930615       4.75055435244552
O         1.67725189673596       0.81764111665014       3.92167003861764
O        -0.71249062776747       0.72276078712123       4.43742017589955
