25
C5H9F2N3O4S2 optimized with ForceField in AMS.
N         1.07949040343776      -0.06677280232006      -0.00105822663007
N        -1.14191652492300       0.00218087830424      -0.01224638212296
C        -0.05481962273925      -0.79375479548821      -0.01169456325766
C         0.69868689307999       1.22599867735427       0.00553541546926
C        -0.68145430729696       1.26881194073307      -0.00225720634693
C         2.44743471358138      -0.56931577887558       0.01162401075826
C        -2.53873282619888      -0.41434581073917      -0.01380596304484
H        -0.08836484180169      -1.87610048228222      -0.01468131001671
H         1.37252641042017       2.07290277066435       0.01627030641211
H        -1.30142075173064       2.15590105859578       0.00181608653389
H         2.45506646425046      -1.67954329492835      -0.02401168039470
H         2.99807169289484      -0.17814136983122      -0.86968145956603
H         2.95767576587246      -0.23741131117861       0.93996215786944
H        -3.04695385461425      -0.02084951482645       0.89151198846575
H        -3.04585483986562      -0.01890364635123      -0.91879839907988
H        -2.61476784993728      -1.52278751893771      -0.01466453148749
N         6.67959034484880       3.48373927026992      -0.21005732122174
S         6.18094374505649       1.92782318551806      -0.13871829890030
S         6.72680922578968       4.42356554327530       1.12855562384836
F         4.57906630844671       1.88438886112125       0.34244768565640
F         8.12601960296162       4.09020845191443       1.98415625905443
O         6.31779438988223       1.29102078530284      -1.49246851705704
O         7.01013134397936       1.17388517006225       0.86290326945963
O         5.53936044317863       4.13994702063841       2.00592985970954
O         6.72729034982696       5.87075313190462       0.72572117048927
