26
C8H14N2O2 optimized with DFTB in AMS.
N        -0.11711958469560       0.40283236348694      -0.42362006930327
N         1.97351260869201       0.05686303228557      -0.01322276957229
C        -1.52486936023825       0.16085376124934      -0.70069062686973
C         0.83656284655556      -0.54211988129640      -0.34827106674496
C         0.44044036825959       1.61922265862090      -0.12750846943603
C         1.75701538617812       1.39956357129315       0.12472955957428
C        -2.28907121240296      -0.03829104948451       0.60544882831114
C         3.27876336552566      -0.55298050788131       0.05478931747686
H        -1.91541984602663       1.02246358732184      -1.24880102677197
H        -1.60080192834191      -0.72825034800942      -1.33263430790044
H         0.69803572168929      -1.59203649355820      -0.53853124793756
H        -0.13874974065800       2.52575325260459      -0.13124625197262
H         2.58364899823986       2.06461078479088       0.33368182796980
H        -1.89192612684777      -0.89505604984101       1.14892837456807
H        -3.34115887608809      -0.21400091248976       0.38613424641326
H        -2.20103430537423       0.84756529584595       1.23341582909342
H         3.18165318173733      -1.63623622222550       0.08318179472150
H         3.84491709461409      -0.20001563497314      -0.85977969347333
H         3.80327514720712      -0.17408920794110       0.92882896269538
C         5.74653946488899       2.79984242893029      -2.17607134887987
C         4.85822748404346       1.77854279930733      -1.42638958868665
O         4.55792629280298       0.73611039032566      -2.05360521080059
O         4.51695210690092       2.07289900934123      -0.26496669823590
H         5.79618255754907       2.55620449313574      -3.23545724888329
H         5.34498140211524       3.80258725483019      -2.03847335501792
H         6.74793024577419       2.76371727593075      -1.74818010683728
