32
C10H18N2O2 optimized with DFTB in AMS.
H         0.44308007444549       0.08967056372161      -4.76722406711244
H        -0.92689144040862      -1.00925430564874      -4.46548089671381
H         0.70044287648049      -1.67923156619624      -4.74148687603406
C         0.14046251303710      -0.85337316689885      -4.30529623678995
H         2.38355414085756      -0.62401271470776      -0.28524205964221
H         2.36359221474528      -1.71281988670581      -2.82412442904495
H        -1.30266046753001       0.22577095021604      -2.11333276718970
N         0.40609105738268      -0.80228222486546      -2.87761958122806
C        -0.23087681463631       0.09217623013080      -2.06676941573252
N         0.42519707340882       0.05495778823328      -0.88194863918693
C         1.64423416961250      -0.59015635437240      -1.06537383379537
C         1.63883303938199      -1.11247406121498      -2.30297023830702
C         0.13061716700063       0.93340713269244       0.24009930867196
H         0.98347767180977       1.60446367039644       0.38338969991250
H        -0.74500406389956       1.53103563597625      -0.02657350972068
C        -0.14150162666941       0.11019233241885       1.50086331630027
H         0.73906502021563      -0.49643144816164       1.73503195183182
H        -0.97761188829739      -0.57217569267286       1.31435222945463
C        -0.46851633798714       1.02452666237264       2.68496373077436
H         0.36939304467251       1.70826271761361       2.85715013319989
H        -1.34950891481188       1.62949173990508       2.44494575716261
C        -0.73627872619596       0.21886019662005       3.95498996813948
H         0.13876482739897      -0.37523540672264       4.22237257613224
H        -1.58178105561747      -0.45510720003416       3.80941405803576
H        -0.96594580021891       0.89085260665863       4.78215625481859
C         1.25224131769645       3.67445257930920      -3.55951783210125
C         1.05223244723624       2.50226522534671      -2.58439682842192
O         1.80571072421630       2.36769677926013      -1.63621628718023
O         0.05650208964013       1.75926563221331      -2.91099407565319
H         2.07771543527719       4.29674778680347      -3.22202158146726
H         1.46716609836904       3.27663300188723      -4.55008376511776
H         0.33731837228789       4.26185268192575      -3.61192598119480
