31
C9H20ClN optimized with DFTB in AMS.
N         0.28228133844182      -0.16854136743380      -0.21776180929771
C        -0.54292771415176       0.61365168460931      -1.20240365669535
C        -0.53191668860076      -1.32976257982613       0.27147042981370
C        -1.86141062892724       1.09363512298425      -0.62008706721870
C        -1.87548262397353      -0.91889587454465       0.86755294925072
C         0.71025233429311       0.66586297319806       0.95971450833685
C         1.47200807830901      -0.69235014873665      -0.98597444977257
C        -2.69238168808848      -0.08796492568753      -0.12168477492186
C         1.58080845521405       1.86672763629038       0.62804579978430
C         2.51281767767221      -1.41513352555554      -0.14894002363008
H        -0.73334127022075      -0.05696474619217      -2.04468703275216
H         0.07405374291082       1.44475378740937      -1.56259309440205
H         0.05964638158332      -1.86631706966808       1.01598295973713
H        -0.69600325437759      -1.98559490350216      -0.58795676080201
H        -2.39892581801111       1.61335997854458      -1.41700088394702
H        -1.69667620398468       1.81043228966692       0.18841684511220
H        -1.72965656734097      -0.36219358904885       1.79706108022015
H        -2.41461966330200      -1.83728239075264       1.11574436349823
H        -0.19741649957955       1.00685230565424       1.46040026589993
H         1.23562918853146      -0.00652459469897       1.64264192415851
H         1.07139072983478      -1.36953818991529      -1.74465756229495
H         1.91849335464572       0.16986076730881      -1.50039049889284
H        -3.60224958560506       0.27024480980193       0.36556567341639
H        -2.98431865332656      -0.71433285508276      -0.97073209717605
H         1.83897901659426       2.35008822056866       1.57058609423913
H         2.49862072522407       1.58153974935805       0.12078045893537
H         1.05540296559730       2.58255598993584       0.00120796405995
H         3.26339150710877      -1.80338972606146      -0.83725107145664
H         3.01315840441524      -0.74393591187194       0.54658057452603
H         2.09298313901619      -2.25442865683570       0.40541660811220
Cl        1.95157497179792       2.08542143288392      -2.53928013474079
