29
C9H13F3N2O2 optimized with DFTB in AMS.
N         0.09788029170963      -0.72392352433616      -0.30603120569236
N        -1.86115196994504       0.16694297147095      -0.17260954890053
C         1.44129940806120      -1.02403210200442      -0.78788880307615
C         2.50690867749393      -0.52118067270798       0.18566851564881
C        -0.65236041251525       0.29145953374209      -0.73125330019964
C        -0.66934378240012      -1.55785989738487       0.46996719445924
C        -1.90380882832465      -1.00488980721675       0.54420501756492
C         2.48536346066903       0.99857650228555       0.33779886852892
C        -3.02268049439760       0.91781817215355      -0.61886998617352
H         1.54229213130775      -0.56052688251560      -1.77185429849781
H         1.50558803958976      -2.10679099063983      -0.91162902768331
H         2.35610081122602      -0.99136612543135       1.16248404892026
H         3.48198535976995      -0.83763100085114      -0.19485094785305
H        -0.30463754737862       1.13574385369897      -1.29767465139239
H        -0.27684556319134      -2.47035374043866       0.88233624578478
H        -2.79904042610440      -1.33495648834924       1.04084822205105
H         1.53097678486596       1.32920660095941       0.75033347688307
H         2.63366746309307       1.48188793255058      -0.62862424521759
H         3.28106689810256       1.31574786533742       1.01135086696790
H        -2.78830595009497       1.98171661923437      -0.62512072672557
H        -3.26317762454475       0.58420372334345      -1.63143353462769
H        -3.85639987538480       0.72137188746487       0.05201671820144
C        -1.21477903177742      -1.57204575516295      -2.84927528793513
O        -1.31059380450401      -0.33444916695332      -2.79530812824268
O        -0.28399445757816      -2.31832050401233      -2.58974188872556
C        -2.61207547314587      -2.27481139686962      -3.21606916179961
F        -2.55166324824502      -3.60832432683053      -3.28209121220971
F        -3.14855136202040      -1.83676732664347      -4.36286910683084
F        -3.50327223253643      -1.97334843099297      -2.23186628862726
