58
C18H34F3NO2 optimized with DFTB in AMS.
N         0.43760613998091       1.56290852755940       0.11593503311900
C        -0.21188132177873       2.68743483975260      -0.62546038857556
C         1.20573246404311       2.26699172905349       1.19633943030942
C        -0.60084771256358       0.68042964470106       0.75031805886646
C         1.35913792239823       0.79946491684779      -0.78963329465997
C        -0.61885430376027       3.69512421048037       0.44965221036451
C         0.29378770556364       3.39986221417804       1.65170936451763
C        -1.45795113840209      -0.14241999360026      -0.20495266343801
C         2.07550717256912      -0.36310181640602      -0.10611403004251
C        -2.27232390403109      -1.13171511082044       0.64138803008113
C         3.02795889895248      -1.03923181319453      -1.09611625566765
C        -3.09920975513708      -2.06830737806116      -0.24223205348861
C         3.74159346354947      -2.21479507122895      -0.42100804800619
C        -3.89347096970290      -3.06428445138390       0.60879065456162
C         4.69407099236288      -2.92016788874757      -1.39052186608555
C        -4.71148062916589      -4.01464197927005      -0.26357004317231
C         5.39955743447502      -4.09565276960797      -0.71608083125801
H         0.53293899738770       3.11508891277188      -1.30089736638481
H        -1.04971437217281       2.30898522431974      -1.21033487280568
H         1.46058640983147       1.56653544990967       1.99460118385047
H         2.12247124483024       2.65553206262810       0.74680626207236
H        -0.06736283282643      -0.00200849354823       1.40720235571435
H        -1.23501230589199       1.32067035806074       1.36483049597386
H         0.76384863684548       0.44745083426386      -1.63616879661284
H         2.09072721482521       1.52057700013593      -1.16710763576296
H        -0.48150658731765       4.71231953668145       0.07872149878420
H        -1.66963569581086       3.57177608519103       0.71874062701836
H        -0.29200150726629       3.09414693351917       2.52061897763385
H         0.88678997878811       4.27212524696165       1.93046769192817
H        -2.12951125414224       0.49404595830928      -0.78983066218492
H        -0.83272478460235      -0.70701266318920      -0.90088904771024
H         2.64109192232112      -0.00305610404628       0.75619374705575
H         1.35943173405677      -1.10237225805812       0.25941023559120
H        -1.58345956954261      -1.71740535716923       1.25946019805228
H        -2.93449822815153      -0.57562789731852       1.31271509879750
H         3.76721948321497      -0.31366081565275      -1.45451943474255
H         2.46375393474040      -1.39887691360803      -1.96437105464498
H        -3.78822287423185      -1.47965753144413      -0.85880815092934
H        -2.43179763641756      -2.61554684663579      -0.91710766209835
H         4.30302081586670      -1.84762730505045       0.44385346965477
H         2.99564942853250      -2.92733790247696      -0.05535540645264
H        -4.56424441573252      -2.51598012094663       1.27867205298233
H        -3.20142955196335      -3.64309749185066       1.22869802113136
H         4.13055683558183      -3.28256164648555      -2.25755044359381
H         5.44163764553378      -2.20597068464394      -1.75324330490058
H        -5.42133334803422      -3.45722102452672      -0.87685537227722
H        -5.26735718621086      -4.71201101965506       0.36346806206061
H        -4.05761589973440      -4.58658832091901      -0.92359203710171
H         4.67047029839301      -4.82488152633179      -0.36039597492212
H         6.06769707016334      -4.58813263674033      -1.42316086810635
H         5.98730647911653      -3.75017058104441       0.13535824493396
C         1.10155969463953      -0.73395561739513       3.11332529075391
O         0.62884818678632      -1.65634048058438       2.45511175303254
O         2.12521427479086      -0.06513307890031       2.98379585998132
C         0.10848611080265      -0.15645822259496       4.25762693038801
F        -0.92559863587681      -0.95200911513909       4.55182393863922
F        -0.43884014016632       0.99782383401319       3.74805261838718
F         0.69726279129086       0.18684325283812       5.40704805638813
