28
C10H15NO2 optimized with DFTB in AMS.
N        -0.51558370140732       0.15702428998437      -0.84484954355849
C         0.93104546115846       0.27540890126382      -0.99139012673162
C         1.61140308567658       0.17267149249948       0.38091236457252
C         3.12673808551020       0.30538052688457       0.25018623717898
C        -1.28328753472958       1.35769311228961      -0.67622606138972
C        -1.11286110871110      -1.06793435697022      -0.87216154460628
C        -2.58195743502815       1.10254776216320       0.01208266661983
C        -2.39974357826360      -1.24661457681776      -0.49245278996364
C        -3.12347147928577      -0.12621536316961       0.03049697284473
H         1.28411358989866      -0.52739597863006      -1.64679361636601
H         1.16400360804272       1.23613409874605      -1.45588164771541
H         1.35864855056491      -0.79043449241025       0.83553538322377
H         1.22657250633563       0.96322815906363       1.03242435366294
H         3.52682721680190      -0.48660890081144      -0.38466001115695
H         3.59462589548359       0.23320645623104       1.23196843530643
H         3.38818688034381       1.26855265283176      -0.18969667042700
H        -0.67663074081195       2.12606973016874      -0.17732814593908
H        -0.47652816218206      -1.89173093383586      -1.17880366075237
H        -3.07973000524118       1.96819470750257       0.42994204418756
H        -2.85207227217386      -2.22795684709009      -0.51874072328732
H        -4.09112477330308      -0.29886597030748       0.48870272227479
C        -1.30826442292790       3.31885757578020      -3.87373415148968
C        -0.80799038323914       2.84629601699356      -2.52744029808483
O        -1.59887153053771       1.90859176291064      -2.02625002886603
O         0.18201407465997       3.27155110507470      -1.98826660703141
H        -1.26788556972657       2.48822142009845      -4.57661529639141
H        -2.34354766150573       3.64175092980023      -3.78191184649785
H        -0.68857657280178       4.13719996785617      -4.23124768741642
