42
C10H22F2N2O4S2 optimized with DFTB in AMS.
N        -0.00552593087921       0.11886210046781      -0.08449023624778
C        -1.30859972646994      -0.14891627097535      -0.77033580241132
C        -0.43247655179281       0.82758546894229       1.16751105093802
C        -2.28048880385695      -0.52393220158404       0.34842795641690
C        -1.69083073041911       0.09985100020025       1.62387584045023
C         0.86355098616062       1.00322654482983      -0.93016711664139
C         0.67866658623443      -1.16942765791244       0.28286523406991
C         2.23611719174820       1.27794581787385      -0.31689153863364
C         1.18181841320084      -1.99992971685904      -0.89522203956411
C         2.95844188556853       2.36488547324648      -1.10921097204616
C         1.95540562429651      -3.20238126793467      -0.35166036334111
H        -1.61751684179588       0.77548768020050      -1.26410126449231
H        -1.18098544287355      -0.92897483324322      -1.51980680301424
H         0.36548078357881       0.79802035744512       1.90398883968991
H        -0.64897623547986       1.86470190405849       0.90137009495610
H        -3.27341036227083      -0.12874776902367       0.12736983126884
H        -2.36112062016486      -1.60823503171560       0.44534933883684
H        -1.43921142356057      -0.66661150588464       2.35964081571002
H        -2.38480896543910       0.80219793940526       2.08758346468344
H         0.96432898680109       0.52413691312248      -1.90717177793229
H         0.31526331332025       1.94019191139898      -1.06532146450873
H         1.51964622246354      -0.91225432014603       0.93258915568694
H        -0.03143352082177      -1.75174314344325       0.87229131924481
H         2.13205530639723       1.59990227234835       0.72090480880762
H         2.84290727480651       0.37114651755196      -0.33144044943377
H         1.84895682905221      -1.40960859552405      -1.52754043634614
H         0.34748343113554      -2.34778896806555      -1.51229373182159
H         3.09187908494988       2.06219327523058      -2.14850652640159
H         2.39850317464778       3.30053414591425      -1.08406619418404
H         3.93844125344295       2.53093409927648      -0.66392757326371
H         2.82469849145162      -2.86690720434843       0.21338240986922
H         1.32168554859694      -3.80352579503246       0.30073725214452
H         2.29499406926683      -3.82263885728248      -1.18016809260661
N         2.93382289459495      -1.07846218808629       2.37959687935676
S         2.21301475118430      -0.31289937799647       3.56033804613527
S         4.36116934587400      -0.56596792424612       1.87991279662599
F         2.06298252236643       1.23354357636056       3.00611320660311
F         5.37812831941699      -1.02503715585684       3.03269084004531
O         0.85247040379103      -0.77248129585978       3.56715101904729
O         2.90931966866297      -0.17590579949326       4.79154620313516
O         4.51887323456124       0.85025772078613       1.78451912604347
O         4.69373307955224      -1.36723095624599       0.74412451852487
