31
C9H16F3NO2 optimized with ForceField in AMS.
N         0.14914911189641       0.26311590619941      -0.07225774526005
C        -0.48718908137572      -1.02172010482145      -0.46887742041637
C        -0.92305750366990       1.05036404263514       0.60822444030062
C        -1.98848309350803      -0.82024381540790      -0.44099808291726
C        -2.19015840372342       0.20847075078247       0.63960494863903
C         1.28389130534067       0.04209587080918       0.87559419813149
C         0.61095949224124       1.00050142461137      -1.27707248393154
C         2.44702927318686      -0.78590265701926       0.30212385432909
H        -0.25110203291018      -1.83582329430858       0.25491084472866
H        -0.16411203885243      -1.37527454756817      -1.47474579197259
H        -1.15330942387202       2.00442141656908       0.07841079161948
H        -0.65671677749846       1.34361456333431       1.64993495005157
H        -2.52857521132486      -1.76507676653207      -0.21274147807479
H        -2.33518456675249      -0.41676001134798      -1.41777469692554
H        -3.10017730253185       0.81979972288042       0.45492824242818
H        -2.27931178965986      -0.29895776745748       1.62597396673947
H         1.69498334773201       1.02034813285940       1.21410759203741
H         0.91661274057104      -0.47892270001153       1.78975932195879
H         1.33256686547441       0.40238961272198      -1.87338679840855
H        -0.24374957690069       1.23526521083008      -1.95060201040191
H         1.09963533575620       1.95857076938904      -0.99141072779554
H         3.15663306731147      -1.02798709755789       1.12117373669942
H         2.09486135757526      -1.74047003596407      -0.13836976719058
H         3.00698190452393      -0.20963959704864      -0.46203473503063
C         4.75820067051847       2.31837732001498       0.68210154875073
O         4.66699336287441       1.41504431409432       1.49819606996950
O         3.89944631721388       2.44476486598425      -0.17604712950017
C         5.91367130796509       3.27349868711587       0.72917381657318
F         6.59688721362702       3.23292929113102      -0.47221262461338
F         6.78280047121478       2.93752000880938       1.75275544339120
F         5.44337052735676       4.55612074657332       0.94128255619106
