21
C5H9BF4N2 optimized with ForceField in AMS.
N         1.09439811950982      -0.00323778877206       0.01134223503470
N        -1.12751850522601       0.01220641537820       0.01143512963961
C        -0.02176834849824      -0.75761272249230       0.02062077928224
C         0.68279457605568       1.28015003117120      -0.00423534928526
C        -0.69767680214098       1.28973038143402      -0.00379474341445
C         2.47415452581985      -0.47116339430048       0.00357969847825
C        -2.51415597184653      -0.43652250510163       0.00845500987995
H        -0.02897319144240      -1.84122460994392       0.02909109282698
H         1.33649404125788       2.14344916234621      -0.01714713652892
H        -1.33898693242498       2.16213297280341      -0.01696124949149
H         2.51033859544780      -1.58114936156608       0.03787560907969
H         2.97733671972526      -0.12516378722871      -0.92307978779168
H         3.01040621586822      -0.06666139496335       0.88754644951469
H        -3.03513152166884      -0.04499805807713       0.90732200407311
H        -3.02528655328512      -0.06233476431306      -0.90342517978376
H        -2.56439386339615      -1.54660519075448       0.01851132950050
B         6.08161225891356       0.88069163007084       0.32310784110750
F         5.44276380430430       1.87834853778754       1.10710006450836
F         5.47605467353190       0.82723907630848      -0.96040673828208
F         5.94935528836391      -0.38074590472731       0.96304383284237
F         7.45882087913106       1.19817322104059       0.18183700300968
