47
C15H29ClN2 optimized with ADF in AMS.
N         3.11311907232635       0.89887557185091       0.04887729988361
N         2.90500895786622      -1.24721041998612       0.33807124633096
C         1.55444160747422       2.79932033038006      -0.25253146230801
C         2.92088887171689       2.34292607982652       0.24912686325009
C         0.98116076242758      -2.59432800767831       1.11021383030876
C         2.49529259218241      -2.52952806613968       0.92879184187860
C         0.39075480126004       2.19971757665432       0.52909459604660
C         0.21925812953383      -2.47120871616005      -0.20557671899040
C        -0.95960397428507       2.54481409037427      -0.09432169334915
C        -1.28955288571541      -2.33955437926839      -0.00852577575693
C         2.73411394524851      -0.05063340607093       0.92353945064565
C         3.45961615309308       0.29624822434578      -1.13682688509515
C         3.36790667245719      -1.05435803709681      -0.94178220317380
C        -2.13028559364081       1.93414919143008       0.67085609419129
C        -2.02036319172221      -2.06822336363300      -1.32262078866003
C        -3.47590225073872       2.20792056940067       0.00464720500795
C        -3.52098407615104      -1.87210523923905      -1.13023207866328
H         1.53807482678485       3.90286103619368      -0.20017417907682
H         1.44579986627167       2.48467376560331      -1.30817541481447
H         0.66969800877242      -1.78711665339784       1.79965149552431
H         0.74846601123172      -3.54507616647014       1.62478426436460
H         3.73951124078409       2.84701744922702      -0.28577493944033
H         3.05144160557189       2.53437377428257       1.32693566334143
H         3.03410692567836      -2.65298629487618       1.88123568322653
H         2.84133765049720      -3.31051207965608       0.23521294240380
H         0.42668256284702       2.52076425493799       1.59042447760404
H         0.47830703302030       1.09918523677973       0.49172588128341
H         0.43714835242703      -3.35454285528777      -0.83685127883567
H         0.56195346237232      -1.58392526772013      -0.77595690573802
H        -1.08447912546624       3.64304485311939      -0.15511008352550
H        -0.94852979915305       2.14704952349415      -1.12610813481982
H        -1.48444752953634      -1.49650180322265       0.68302545569235
H        -1.70157881056821      -3.24540867665148       0.47963425711038
H         2.36653258583194       0.12379618190989       1.92497199623510
H         3.71920589063561       0.86503184835066      -2.01908636955021
H         3.49460318971143      -1.87405126265068      -1.63561448657207
H        -1.97337265368877       0.84204443056667       0.73830582437011
H        -2.14152828790740       2.31766150390769       1.70949350332184
H        -1.84013295180030      -2.90763477264292      -2.01983925996319
H        -1.56790763945865      -1.17609538393929      -1.79340460105993
H        -3.65929415934129       3.29196163250513      -0.08194072141200
H        -3.49576386775357       1.78304171188442      -1.01160702284303
H        -4.30752634194519       1.76820172163825       0.57658186214565
H        -4.02150568616991      -1.66858351043496      -2.08939438946553
H        -3.72189613071565      -1.01950459491538      -0.46042331506752
H        -3.99044811921814      -2.76671273682695      -0.68545474130117
Cl        0.77441115035180       0.30727876540164      -2.39725938448502
