44
C12H11F18N2P optimized with ForceField in AMS.
N        -0.60651837902647       0.14565495235153      -0.34714758678815
N         1.58984559099288      -0.10816393902274      -0.11582222312753
C        -2.00711853931776      -0.13483961159285      -0.65467928274793
C         0.43000639423457      -0.71004316479729      -0.44312596532726
C        -0.08308428037552       1.32540022108304       0.04575638762036
C         1.28032596020076       1.16696487257973       0.18991835177692
C        -2.85111901986935      -0.09736461108631       0.61411559327934
C         2.91961868580495      -0.70311030683988      -0.11141733784783
H        -2.38565716497726       0.61706572610855      -1.38022971746777
H        -2.10114782051434      -1.14083881586316      -1.11924974150032
H         0.34301976907426      -1.74521945421278      -0.74946720581849
H        -0.64777096275021       2.23476864295200       0.20537737954816
H         1.99214719968007       1.92589498803399       0.48823066295847
H        -2.47738138966019      -0.84999615242230       1.34051694298533
H        -3.90795905490287      -0.33108135486207       0.36618232535140
H        -2.80806047398619       0.91120883182886       1.07659997117103
H         2.86584198525570      -1.78063081104813      -0.37653417267331
H         3.56058900777332      -0.18251810567758      -0.85307118257823
H         3.37018678960307      -0.60429186702101       0.89871830793176
P         9.73589279371946       1.39282602474868      -1.62474988565832
F         9.73928551302267       2.68496240732191      -0.48568095291116
F         8.64320170358552       1.69809492020108      -2.92352228047053
F        11.09832939676615       1.05007387706348      -0.63003511800196
C        10.64969384157278       2.76084071467510      -2.65079765111184
C         8.17260336308392       1.15763929736630      -0.50287889038111
C        10.14209738478551      -0.42109138608095      -2.14608574101529
C        12.00729444934958       3.26763219110249      -2.09922552922800
C         7.19675702426521       0.01987474854172      -0.87274509383404
C        11.41853750374793      -0.65752815327681      -2.97593349531031
F         9.82416634429197       3.87399582871152      -2.75024159383415
F        10.87164140291822       2.31487976493713      -3.93940016279954
F         7.40861660729465       2.32190234031735      -0.52032357846980
F         8.58514671049634       0.92663931749489       0.80250876789856
F         9.09618693879217      -0.90058157921764      -2.91455055923876
F        10.23183826164177      -1.21884159996799      -1.01448213069235
F        12.49781137183566       4.24187008954159      -2.95064832182464
F        12.94211344914069       2.25736644887814      -2.03781064267768
F        11.87533188599395       3.83513056419879      -0.84503907454041
F         6.08413082825973       0.11620292807870      -0.05592590436647
F         6.77041129331130       0.12274287171522      -2.18361680480676
F         7.75214259785699      -1.22515897516936      -0.65616962449831
F        11.31058575309807      -0.08777492252093      -4.22813161580860
F        11.58264459127359      -2.02022397972195      -3.15363632567819
F        12.54394409905669      -0.18459402243007      -2.33704143648631
