45
C11H24F2N2O4S2 optimized with ADF in AMS.
N         0.14831869863712      -0.33537391189977      -0.56383940508397
C         0.28797450731750      -1.69832913217590      -1.22166013397245
C        -1.35151086280829      -0.13433242193636      -0.56359740250605
C         0.66039392465577      -0.38608340024172       0.86236581097574
C        -0.86075922593396      -2.53035140607316      -0.66347992439299
C        -1.94894451292151      -1.50739564056256      -0.24661154108273
C         0.85211843637089       0.72565891949399      -1.38688416471495
C         2.16956043729472      -0.62063600826973       0.97124113909192
C         0.80848129913907       2.12245814039818      -0.79642616256774
C         2.52991116870187      -1.84061299568930       1.82233584011880
C         1.40098849461495       3.10971041906693      -1.80498922158144
C         4.03938099844721      -2.05753469843146       1.87889711066409
H         0.19931436622338      -1.52507381234081      -2.30257278869335
H         1.29157471541266      -2.08746291370302      -1.03041338301970
H        -1.61786104294953       0.65775373479052       0.14718757321769
H        -1.60833451353417       0.18699976665836      -1.58347273421841
H         0.10281051141877      -1.19808379137333       1.35196828929518
H         0.34944929081735       0.55805246779951       1.33094929669941
H        -1.21481979699791      -3.22924488744073      -1.43420617552349
H        -0.53990988358035      -3.13360592418222       0.19817507391767
H        -2.19131148462563      -1.59933054330632       0.82209430813394
H        -2.88519651712887      -1.64319402623990      -0.80627302469615
H         1.88234724845014       0.38047762570231      -1.53904469157366
H         0.37344517555056       0.69137549634388      -2.37543601935329
H         2.61340440502950      -0.76366534797131      -0.02514782066023
H         2.65144316955299       0.27869224627725       1.39134400722730
H        -0.22921574472890       2.41772825417847      -0.56145102422211
H         1.38749436782076       2.16626263208003       0.14110416754789
H         2.12207656559879      -1.72102566570932       2.84263358603757
H         2.04473613884769      -2.73453230271287       1.38849513319754
H         2.43713203058849       2.83929692653920      -2.05630760103209
H         0.82637960859121       3.10360661020506      -2.74293947094978
H         1.39456467780441       4.13183994599840      -1.40007994210534
H         4.29683575127025      -2.93989262377454       2.48271470217509
H         4.44721484353211      -2.20406592306760       0.86645275559233
H         4.54441721437021      -1.18477620257875       2.32341309003230
N         3.14592393030698      -1.49997602505206      -4.71823864564630
S         2.04965346900954      -0.34714420867871      -4.88397882560567
S         3.33878826092933      -2.26415069226758      -3.33058086890005
F         2.68451386653237       0.91752529571056      -3.99496125539896
F         1.99440457098371      -3.25420675556883      -3.23812861156967
O         2.07317720677441       0.12833048916678      -6.24651525876201
O         0.76871115394298      -0.58841366614006      -4.21961419340844
O         3.20480135960565      -1.43908746508288      -2.12813696715532
O         4.44733169836579      -3.18145621903864      -3.44520177112813
