25
C7H10F6NP optimized with DFTB in AMS.
N         0.51626456648486      -0.24633329164035       0.14088456046042
C         1.77889045876246      -0.12653600675156      -0.60474040613242
C        -0.12527388574696       0.87065674230176       0.52155673088420
C         0.07401140889047      -1.45708468628437       0.51529956274206
C         2.93171663399005       0.23421184981368       0.32578025472910
C        -1.29667953337426       0.79607687291637       1.24360244262915
C        -1.10043250640984      -1.58511547942453       1.22922141049072
C        -1.79785640636771      -0.44710262629410       1.60733874638992
H         1.96439506785129      -1.08309197575722      -1.09939251531071
H         1.63966075652628       0.64514089277110      -1.36725383094393
H         0.32127032594399       1.81466546514149       0.23587358726159
H         0.67185750302931      -2.31219873237422       0.22756449020854
H         2.74261450102785       1.18807721701323       0.81388226457008
H         3.84426637958307       0.30603741094988      -0.26414095930715
H         3.05573467907924      -0.52824015362758       1.09157149467767
H        -1.78849200328398       1.70971632363710       1.55054655997133
H        -1.43359541852091      -2.57032623105715       1.52721262670860
H        -2.70122534550141      -0.52479471005432       2.19889199645252
P         1.46745312178723      -0.40995372032030       3.75285509385565
F         3.08719890847572      -0.21353415736413       3.61882420887246
F         1.52743864707348      -1.49165677060924       2.45127740381188
F         1.65375385532116      -1.65520484963797       4.78014082330983
F        -0.18057668108853      -0.60718505485030       3.77811331448988
F         1.38378089659872       0.66465913968877       4.96844337753779
F         1.25385819066844       0.83681792491396       2.63817415294085
