45
C11H20F6N2O4S2 optimized with ADF in AMS.
C         2.65306960220249       0.58076272213299       1.83856211340273
C         1.64090480027651       1.58810762170216       1.30406829385154
H         2.40026574755522       0.66141657108915      -1.11801754748694
H         1.39914005785196      -0.82415294091568      -0.96484577968577
H         3.85060754966648      -0.48662465012883       0.32912373436164
H         2.56531108638614      -1.47688362359143       1.06005325595251
H         2.30810014396843       0.11168270386011       2.77222054793787
H         3.59890653233494       1.09910505168858       2.04691770003694
H         0.95710426447111       2.01833014416132       2.04854097165263
H         2.15208343928008       2.38697771778899       0.75536482430106
H        -0.69478987392161      -0.63878138814039       0.18788135825130
C        -0.18704427234100      -0.02544632705760       0.94081506106028
H         0.32044599833906      -0.67097825674119       1.66736904111804
H        -0.91405718402836       0.61741735449039       1.45429669416561
C         0.16553064740482       1.84283262069309      -0.66758164892807
H        -0.30145736188035       2.58911405068220      -0.00448989569417
H         1.00022075276552       2.31693017819378      -1.20651170030317
H        -1.76395328277234       0.93878489362485      -1.13719074633986
H        -0.97259568521159      -0.61221649846538      -4.56342787994731
C        -0.35982321276951       0.27066608111869      -2.66790481567617
H         0.64823102399654       0.55628421239341      -3.00946989346174
H        -0.28551273207541      -0.72726355515357      -2.19873884483390
C        -1.28904382855615       0.18555261661195      -3.87546864670498
H        -1.27082521050617       1.13702642277401      -4.42849926699251
N         0.82334562605564       0.83671185371149       0.26638189297398
C         1.88776624654919      -0.01189508319440      -0.41694071126960
C         2.81893904365857      -0.46608116363581       0.70615763577935
H        -2.32802160167386      -0.01991870280229      -3.57011489621768
C        -0.85643234643594       1.30292574990529      -1.65186286283566
H        -1.16847578998424       2.20287961705938      -2.21266378763530
N         2.88780685577655       2.65631460514648      -2.29431811459768
S         2.41466302885686       3.43412235599649      -3.64357964294455
S         4.17381746446865       3.09648834107379      -1.42831428236852
C         3.46853420215680       2.69346616345156      -5.02767555116842
C         3.64520410818398       4.66840057599931      -0.48171980921095
O         1.07034712131870       2.93633868138512      -3.92783131203284
O         2.70122050831063       4.86035508246238      -3.66870446730413
O         5.36470788453859       3.48852580822327      -2.16273624749861
O         4.26875803361751       2.10490157845876      -0.34983368071056
F         2.87128258277619       2.97176326050936      -6.21149803834805
F         3.55659486961786       1.34539425649831      -4.89646956016849
F         4.70974401318929       3.21116450079806      -5.03489152394112
F         4.31364500806474       4.71323520446949       0.69952569109272
F         2.30827311717025       4.63211282718307      -0.19437356688840
F         3.90518858714724       5.78999931478926      -1.16576435614303
