32
C10H16BF4N optimized with ADF in AMS.
N         1.14779257279391       0.23441642324554      -0.66343217370161
C        -1.20422223848806       0.05731040873142       0.14737135146374
C        -2.64257513153782      -0.24720514252859      -0.26836689192084
C        -0.26042896973019      -0.06795285742909      -1.03978620272980
C        -3.61369239424057      -0.17370176561446       0.90911930146510
C        -5.05759219461164      -0.45269535711668       0.49950302578430
C         2.11564728866293      -0.68900684893679      -0.86385550328412
C         1.44414752045408       1.46059156938130      -0.18146678798710
C         3.43057227200612      -0.41325100417357      -0.55223400032574
C         2.74944143410868       1.77105584570862       0.17038586232141
C         3.75400087153551       0.83450858506301      -0.01580984863720
H        -0.88273916123183      -0.62485806638179       0.95618703938372
H        -1.16466934677600       1.08838913888635       0.53544099372533
H        -2.69895444512990      -1.25337571793430      -0.72470833531235
H        -2.94566383940595       0.47498497957821      -1.04698576349634
H        -0.26056881677826      -1.09279254863552      -1.43813664893674
H        -0.52518422492874       0.63159625323511      -1.85304506257121
H        -3.54701973655925       0.82866278653053       1.36887008089000
H        -3.30188605639580      -0.89634732946981       1.68556301297676
H        -5.40431305849940       0.28191466502025      -0.24452762419068
H        -5.73432508661303      -0.40205866507384       1.36603640838501
H        -5.15611952920697      -1.45499182756629       0.05221505844073
H         1.79199667940070      -1.63682121084623      -1.28830292000802
H         0.61610695661320       2.17016456788729      -0.13073802200593
H         4.19151865727966      -1.17083246039199      -0.73708371565160
H         2.95973051832076       2.77039589433131       0.55047456563991
H         4.78839905991915       1.07277778110387       0.23692294741760
B        -0.04712178597870       3.05375882547017      -2.58245406390215
F        -0.66907857128767       3.09707961578955      -1.26942582246872
F        -0.66396738341757       1.99720749554823      -3.31633996391159
F         1.33964774386135       2.71280459022437      -2.38150462737064
F        -0.17012647783871       4.27923535766383      -3.22569549248120
