39
C9H20F2N2O4S2 optimized with DFTB in AMS.
N         0.82182007965680      -0.49811864403287      -0.04980924873656
C         0.54565274118791      -1.42529791471186      -1.19850031056113
C         0.50473129286142      -1.33992915248591       1.15263597841562
C        -0.65544865469831      -2.26677404851214      -0.77504189593898
C        -0.69845376053740      -2.18700704748336       0.75790042916981
C         2.26676674350019      -0.09926934709772      -0.01838958144909
C        -0.10102835831791       0.68047138405825      -0.13945484611757
C         2.70999095167383       0.74463008007616      -1.20959484598290
C         0.11018617210334       1.73465843844915       0.93786476861873
C         4.23229586718556       0.88455898350930      -1.17687695494448
H         1.43077446966586      -2.04850151441390      -1.33134718411167
H         0.36797582416944      -0.84588036882696      -2.10469924804399
H         0.32962232001415      -0.70275231076844       2.01777687191198
H         1.37029024113679      -1.97326924796551       1.34181099769535
H        -0.51370255263259      -3.29507024228280      -1.10994498271738
H        -1.57890658123456      -1.88256019597417      -1.21405108509497
H        -1.63264858172127      -1.73623170700096       1.10072049691151
H        -0.60572812115106      -3.17698669882675       1.20642569429908
H         2.83938885328197      -1.02712756998880      -0.00117390056258
H         2.44448082338477       0.42329483143919       0.92337971138638
H         0.03946062020755       1.12854514367526      -1.12599536163435
H        -1.11938544260800       0.28954158062447      -0.08176706887136
H         2.41359528378150       0.26086834886941      -2.14428273775241
H         2.25168944637167       1.73755581757166      -1.17952176808143
H         0.02264684550154       1.31653505394337       1.93881557810433
H         1.07999358377485       2.21883054478648       0.84167653861012
H        -0.66318112415632       2.49280155294978       0.81584580056748
H         4.55128774607420       1.36786955503566      -0.25324880655232
H         4.70279947397315      -0.09663491243141      -1.23777787276115
H         4.56571496512370       1.48706747854436      -2.02095564258453
N         3.92273301452352      -4.32056994026919       1.20431475020776
S         3.64972044640438      -3.25263907274032       2.34951360671266
S         3.04365706323908      -4.21371985565505      -0.10036388102561
F         2.12717358680413      -3.57117287024232       2.84644719395533
F         3.56148936242408      -2.82629284160057      -0.84831893467498
O         4.47180161036663      -3.56511250307277       3.46400824225183
O         3.55662562515375      -1.88020343374879       1.92449175336008
O         1.64170485014974      -3.93518028226050       0.07990797811521
O         3.42153948836190      -5.24471322243938      -1.00147058289379
