53
C17H32N2O2 optimized with ForceField in AMS.
N         3.07056240845738       0.91339521211246      -0.00682881234502
N         2.91427401151752      -1.29903304229072       0.17590402220190
C         1.48208875342712       2.78869795145054      -0.25099768477857
C         2.84764502421688       2.32886911515897       0.28257176575833
C         1.00901050008082      -2.62857485945868       1.02398971928801
C         2.50851200357449      -2.60796766283219       0.68746605301099
C         0.31929510540361       2.11565144898715       0.49429784171528
C         0.13843863311387      -2.30779476575084      -0.20120362804092
C        -1.03596750343466       2.55168852928959      -0.07178297141679
C        -1.35043870109194      -2.29257653379922       0.16146735640645
C         2.83735344472854      -0.12050638784855       0.82559087781417
C         3.31319983355302       0.37054840940200      -1.21701394495826
C         3.22119137294124      -1.00068165734590      -1.10216692636430
C        -2.18498762221962       1.88795741039106       0.69668208527177
C        -2.19672897791191      -1.80963689453596      -1.02309068120341
C        -3.53487956010378       2.20909854757429       0.06367340625683
C        -3.67644090391890      -1.74940184544313      -0.65693741869249
H         1.40587944560099       3.89060603550975      -0.12468120526170
H         1.41565882836159       2.56441717950600      -1.33820892719128
H         0.80579340800125      -1.89188409900414       1.83168061519802
H         0.74439101438742      -3.63734389937816       1.40912203596050
H         3.65121672592524       2.93006702749432      -0.19492526948958
H         2.90279088895319       2.50840539410231       1.37875947827775
H         3.09580171003491      -2.84153350555102       1.60126872696342
H         2.72754248693696      -3.39705414395904      -0.06535222669176
H         0.37388511818223       2.37851937811286       1.57367564315440
H         0.39969855254910       1.01266781683388       0.39557324314090
H         0.31885246075585      -3.06730036070909      -0.99335572378439
H         0.41619651183516      -1.31004242668858      -0.60321360021433
H        -1.13363694186362       3.65711215169872       0.00317606335418
H        -1.09199716357497       2.26195467934875      -1.14454684101685
H        -1.51259270006239      -1.61349567168966       1.02711985804147
H        -1.66848525957942      -3.31754123383083       0.45367394705798
H         2.52264718669753      -0.01231997063501       1.85633585447187
H         3.47117979859648       0.93073246317102      -2.12923148017100
H         3.28193041942037      -1.71817298177911      -1.90894896303919
H        -2.04824497850041       0.78613838041436       0.70149200223306
H        -2.18444600986018       2.24328048756209       1.75018070505498
H        -2.06459673990927      -2.50000942678730      -1.88451725946395
H        -1.86539155861988      -0.79432948028554      -1.33379047969589
H        -3.70937932277730       3.30600103402551       0.06186686143884
H        -3.57117294223696       1.82780001650708      -0.97920670406747
H        -4.34371012859228       1.72024032771781       0.64657574405531
H        -4.25894856408380      -1.37516324127505      -1.52497132941027
H        -3.83556610504672      -1.05991226014083       0.19927274331490
H        -4.04758696099123      -2.76080224423348      -0.38735746613033
C         6.42801813001383      -4.40008978855879      -2.54188442290046
C         6.17883386604228      -3.34454098040599      -3.57289013543677
O         6.68625828160592      -3.44074500870005      -4.67838834826697
O         5.47093908143439      -2.38543714441971      -3.31374661658318
H         6.05250653798917      -5.37736207083236      -2.91099765695846
H         7.51795680722796      -4.47851405908205      -2.34615178195158
H         5.90894264131291      -4.15119297121951      -1.59151540721613
