31
C9H19NO2 optimized with ADF in AMS.
N        -0.01858372462241       0.47901842479731       0.12516289605947
C        -0.76688795479548      -0.82781249781897       0.31055368420799
C        -1.14680738399197       1.50120874274729       0.21434192045642
C        -2.03294248652692      -0.66901242110945      -0.52232091934244
C        -2.34565032538075       0.84923827258273      -0.48067505435397
C         0.97416647191933       0.73544839730835       1.24074494357747
C         0.62786342350767       0.52923729309230      -1.21497459779908
C         2.05312902835367      -0.32062953852556       1.36010439859271
H        -1.08195539831184      -0.84575283557810       1.37327539445759
H        -0.11687527005834      -1.66567167661222       0.02633016395694
H        -0.79364107203287       2.44090859939531      -0.23486870856829
H        -1.32490951992245       1.61502420137297       1.30291967899393
H        -2.83499471017351      -1.24941750918224      -0.04517691957819
H        -1.90299077390321      -1.02804981367652      -1.55575821954454
H        -2.51471117781754       1.25236858161082      -1.49101334290505
H        -3.24081038353712       1.03556026155295       0.12876967282721
H         1.40518027870094       1.72871398323787       1.03348299845493
H         0.34362701398183       0.80692980707675       2.15348576244190
H         1.33581803004102      -0.30280554314279      -1.31091222891834
H        -0.14664110453298       0.44324000406466      -1.98628920219225
H         1.15372741020850       1.48735415238217      -1.32008704970916
H         2.69068230741120      -0.04942712073442       2.21523317207648
H         1.62775086283087      -1.31114621012225       1.57568304446156
H         2.70415000381818      -0.39084940816766       0.47546770023782
C        -2.94713162419494       0.48074181822430       4.72570772763892
C        -2.21252660378593       0.44723972451409       3.38049154484386
O        -1.20215952712641       1.21910753766936       3.27592414706102
O        -2.65665939864280      -0.33366223542769       2.48759320056163
H        -2.27561904989894       0.10744734970226       5.51418817579951
H        -3.20188252981483       1.51833770643701       4.98815010598181
H        -3.85489734120196      -0.13546114107064       4.69973948622214
