37
C11H24ClN optimized with DFTB in AMS.
N        -0.15974099773692       0.27024385661880      -0.22153051350937
C        -0.79700281447057       1.18431819956897       0.79113214745347
C        -1.15004927469200      -0.01230065756752      -1.31272251500603
C         0.29574150975765      -0.99178959301219       0.46066481261608
C         0.99192035536812       0.99819733247350      -0.86781015206724
C        -2.10250591181707       0.63424216648642       1.34502955049225
C        -2.46292243002036      -0.59428675799229      -0.80014926570856
C        -3.10189079073631       0.33623899558540       0.22980496087364
C         1.12607911889660      -1.93610479560306      -0.40304476353825
C         2.14131998330601       1.37673126751411       0.06487549945454
C         1.43093356660071      -3.19743859127598       0.40645709240598
C         3.24374759235754       2.05423837784993      -0.74644059927036
H        -0.08006492985283       1.30917475108291       1.61166330574137
H        -0.96955937701135       2.14192699109713       0.29209808727690
H        -1.34454202711116       0.93849207400966      -1.81751140269357
H        -0.68036303095580      -0.69333689596200      -2.02531466065982
H         0.86534133685889      -0.67799254469259       1.34485167018121
H        -0.59850135115829      -1.51160521955567       0.80659849825125
H         1.35660574523648       0.36203449879033      -1.67878571152926
H         0.57044339665604       1.90366405247400      -1.31484594012181
H        -1.91611578511271      -0.26435426046657       1.93786224765071
H        -2.51172985708250       1.39226212232848       2.01753395552302
H        -3.12587779401376      -0.71204036064603      -1.66178103175928
H        -2.30330224373517      -1.58521214989851      -0.36774743724599
H        -3.99657956247145      -0.13378791647073       0.64458838112205
H        -3.40168915562253       1.26967913654037      -0.25819971869837
H         0.58958050618410      -2.21324148829036      -1.31612835468992
H         2.07013352615755      -1.46777281183132      -0.69179237985795
H         1.79379668345551       2.06008648703906       0.84079695177074
H         2.54724386309623       0.49541233333252       0.56235013755470
H         2.05419840587189      -3.87075930015345      -0.18104989923375
H         0.50861396669336      -3.71571979009972       0.67080791110519
H         1.96115527730808      -2.93915549712421       1.32283794978253
H         4.05878008690844       2.33480805962546      -0.08082856580310
H         2.86777214559464       2.95493943592143      -1.23427387563436
H         3.63369507702992       1.38009901624592      -1.51052028593760
Cl        1.36003712446301       0.54198933355782       3.08227806560898
