18
C4H12ClN optimized with DFTB in AMS.
N         0.08191944079236       0.10306766352972      -0.05417933657835
C        -0.60103092543717      -1.12272202451467       0.44460502640276
C         0.84634923145335       0.72698015943053       1.06030555998777
C        -0.92482941054979       1.06362422289917      -0.57065581712880
C         1.02613861847199      -0.27220618453587      -1.14408000208187
H         0.17152357314178      -1.80054133262872       0.82052191885691
H        -1.28760597984161      -0.84421296948998       1.24157674955804
H        -1.14526364918331      -1.58197584238457      -0.37833910575073
H         1.33643820992122       1.62619005282763       0.69236358720510
H         0.15885361260943       0.97700961758938       1.86592156720642
H         1.58903400998459      -0.00051231056753       1.40226397295308
H        -0.41307030534024       1.95180337518419      -0.93685838613233
H        -1.47992823647693       0.59510439445055      -1.38138584750216
H        -1.60406617872262       1.33356052924815       0.23598382418000
H         1.53613782254027       0.62408350355915      -1.49169773138596
H         1.74133634137657      -0.98717291803704      -0.72576187462064
H         0.46252192817306      -0.72603806598861      -1.95694162006343
Cl        2.37582768638705      -2.07733296427149       1.12480779649419
