61
C19H39NO2 optimized with DFTB in AMS.
N        -0.49753684381215       1.69532663341695       0.02012648618791
C        -1.42793294778050       2.36327597042958      -0.94630089058238
C        -0.19646781688258       2.62778937725862       1.15924719620101
C        -1.09397936558821       0.42433883301412       0.57006463367017
C         0.79001553146034       1.43523152097386      -0.72264452636617
C        -2.70868798382967       2.87465781166432      -0.29466250922197
C        -1.45225460902708       3.13399845636660       1.85197740340208
C        -2.39139246059370       3.82075208542904       0.86283302122544
C        -1.20601822157084      -0.73170535900350      -0.41696508225446
C         1.86379514671850       0.75694231219235       0.12315573914459
C        -1.70621958969433      -1.96357558644757       0.34858482091568
C         2.90416627515962       0.05650570954590      -0.75486505959290
C        -1.82445542478036      -3.17631428180777      -0.57688187458844
C         3.81605966738150      -0.80241637704488       0.12814788029674
C        -2.27865652990227      -4.41620392573721       0.19972547327000
C         4.80214054149368      -1.61926736781052      -0.71086823329660
C        -2.39317291935603      -5.63592946291494      -0.71308981888466
C         5.70178743451116      -2.47969161947203       0.17519782469597
H        -0.88231543456385       3.20234064482640      -1.38811521068632
H        -1.65924433311152       1.64328896492560      -1.73435521788651
H         0.41577850265407       2.06682673454621       1.87503788332104
H         0.37455342714193       3.46546849293773       0.74861453605091
H        -0.46783723146636       0.12400600007094       1.41480316659889
H        -2.08325586767148       0.67167939694369       0.95630800316689
H         0.53675267005289       0.82385046728503      -1.59223479827068
H         1.14098519651619       2.40565159449844      -1.08701247012576
H        -3.27864958401542       3.40308080800011      -1.06402871101738
H        -3.32198393201453       2.04102934830287       0.05661786805081
H        -1.96438077022502       2.31133552918856       2.35682652417476
H        -1.13674014305806       3.84557942960968       2.61925629353316
H        -3.31793043798267       4.10963873135415       1.36481718732840
H        -1.91759146884848       4.72824299354067       0.47317286714876
H        -1.89147865830878      -0.48908400063775      -1.23652919210339
H        -0.23040869470266      -0.97253487557700      -0.84474566999494
H         1.41418110097756      -0.00104863510297       0.76898527701467
H         2.35546052232805       1.49216893401996       0.76491095042912
H        -2.67939163702988      -1.74674511177198       0.80240451799465
H        -0.99395560453379      -2.18055641775508       1.15169683163794
H         3.49542647109143       0.79070441916829      -1.31408061860802
H         2.39403614129410      -0.58688451914303      -1.48142392915714
H        -2.54070100117287      -2.96223551233298      -1.37916918572781
H        -0.85240119097902      -3.37444679411238      -1.04177177117859
H         4.36816436594393      -0.15471173582692       0.81726862335286
H         3.19476057242749      -1.47544868035596       0.72887019865125
H        -1.56002551929007      -4.62581107439311       0.99851632916522
H        -3.24983649461898      -4.21852747075854       0.66653223885940
H         4.24691969684583      -2.26529328197883      -1.40005220882320
H         5.42116539920003      -0.94363801989224      -1.31233709748894
H        -2.71649737283909      -6.50464601959593      -0.13873334831896
H        -1.42917015074808      -5.86209308852273      -1.17137615677912
H        -3.11997373698058      -5.45426412563737      -1.50675366973164
H         6.28063089778479      -1.85263107145859       0.85500789701538
H         5.10214535023310      -3.17142355716726       0.76822522504227
H         6.39355629269092      -3.05707950965262      -0.43924295784684
C         1.48255302341867      -1.26763261998670       4.43880256971591
C         0.96033400187193      -0.64917740859021       3.12362331832156
O         0.62531331346263       0.55651693656053       3.15960580098465
O         0.90144710979845      -1.40233697473930       2.12687054253667
H         1.94590704811386      -0.50088539805154       5.05681778424940
H         0.63414526205351      -1.69137502395848       4.97634806812169
H         2.19449543545271      -2.06161174653226       4.22102897305700
