45
C11H24F2N2O4S2 optimized with ADF in AMS.
N         0.34909301617861      -0.19722268371465       0.09815581285207
C         0.61926075432999      -0.22194506460746      -1.42424276590136
C        -1.16305591957386      -0.08198843800194       0.22653107880893
C         0.79023991834074      -1.51328859474688       0.72927924559054
C        -0.74988343705832      -0.15547391995495      -2.09722368583229
C        -1.70923994075971      -0.71012427600944      -1.04267115318646
C         1.04753973249792       0.99306811439893       0.72330787762208
C         2.28425473830981      -1.80294687480814       0.63337090744272
C         0.71357780693215       1.23709046391787       2.18432771983365
C         3.10681775374335      -1.44038139990839       1.87208872223708
C         1.49983432752539       2.45058013264817       2.68672328044748
C         4.58993187198946      -1.70733111571735       1.63105439359572
H         1.27364563626774       0.62006812377782      -1.67320730301763
H         1.15392925556483      -1.15178430162637      -1.65109524320078
H        -1.48171138702181      -0.54745135142464       1.16760027949948
H        -1.39853194177009       0.99227030445376       0.25234090221822
H         0.19701534686044      -2.27951476228136       0.20942947499092
H         0.45313915517756      -1.48011738747309       1.77642074294784
H        -1.01156480310384       0.88930910728756      -2.33111425604869
H        -0.75291798764973      -0.72081704340291      -3.03885956801942
H        -1.65745051728243      -1.81031117948108      -0.99400349492510
H        -2.75889689960156      -0.43000180814225      -1.21143840046277
H         2.12286389152206       0.83459420256263       0.57377957453806
H         0.76543124604801       1.86084718489859       0.10721010097999
H         2.39947096631467      -2.88392658643330       0.43909238849665
H         2.72496519085917      -1.30619523057615      -0.24487681089314
H        -0.36762220678583       1.41594800684406       2.31402658832794
H         0.97496619039783       0.35783482161457       2.79520030003319
H         2.97894739289323      -0.37627474266876       2.12573264083734
H         2.74151592903519      -2.02201261438708       2.73970244361612
H         2.58189105600669       2.29404190080351       2.56932370277095
H         1.24117411996668       3.35296266653803       2.11193981663385
H         1.27960906411629       2.64159963828615       3.74642047181683
H         5.18777981541223      -1.48644570161602       2.52767920104570
H         4.76170226073420      -2.76009572795770       1.35461705052556
H         4.95233661293547      -1.07513478950323       0.80573194208987
N         3.89422950972173       0.58336429780910      -1.23518509755615
S         4.06150385082902       2.17291842733014      -1.04472765548356
S         3.88709690803407      -0.07305530222135      -2.71272361429348
F         2.55191818672983       2.74795179593291      -1.52977716513747
F         5.45288707595251       0.00650162656496      -3.18518107286366
O         4.05202940158389       2.42368479040559       0.38712181970865
O         4.98777178577540       2.84748013352625      -1.92591878594701
O         3.15134859201052       0.67153436181678      -3.71840450205747
O         3.62333273971050      -1.49109471835290      -2.52301783008102
