55
C15H20F18NP optimized with DFTB in AMS.
C         2.50057492239112       0.66319855163153      -0.47451078320018
C         1.38613456842986       0.99700173667805      -1.46026643338845
H         0.97363502675189      -1.75236152692926      -1.38228843364213
H         0.12143999149632      -1.57339399595285       0.16965493801398
H         2.88800234075913      -1.45431499973776      -0.11832458828961
H         2.03488526636072      -0.64181771911818       1.20381566004758
H         2.57283417643081       1.42192904762526       0.30778911051263
H         3.45452269858491       0.62214251725736      -1.00231263298854
H         1.10517265974789       2.05063353976245      -1.46760887858268
H         1.65888580415334       0.68973234560350      -2.46923510002189
H        -1.30679411266500       0.21678978395828       0.43260788375165
C        -0.53007052867966       0.87030582956907       0.04242739362481
H         0.17068221746726       1.11601339169536       0.83747850416986
H        -0.97423937397550       1.78112079995062      -0.35527453720766
C        -0.67645335903990      -0.02428220536532      -2.25382294832430
H        -0.83653797293694       0.97555580086719      -2.66718836943337
H        -0.09347050313050      -0.60503057344667      -2.96930797826651
H        -2.62390344480902      -0.13323783913051      -1.29764315805625
H        -3.34305100229998      -3.85396020450351      -1.55640934125470
C        -1.99707792165796      -2.17547528438606      -1.67309662410703
H        -1.29370920939741      -2.69815133373976      -2.32606594195697
H        -1.66483173247320      -2.30405636143558      -0.63867959644230
C        -3.38255714873525      -2.80002657173508      -1.82986035160310
H        -3.71989667522949      -2.72220247355406      -2.86368666136406
N         0.20110916898923       0.17242071220128      -1.04485560446249
C         0.80759495415948      -1.09789915048248      -0.52938784745630
C         2.13236100793125      -0.70353821203563       0.11780396180627
H        -4.10718734524990      -2.29866340030317      -1.18641192334861
C        -2.03481831537077      -0.68645454951434      -2.03515765300312
H        -2.54651248294007      -0.58248763813706      -2.99803237917205
P         1.99496300883021      -3.29323053504591      -4.26714385542156
F         1.14327292810902      -4.71679295921567      -4.19612185011434
F         3.16630849538020      -3.92900910124655      -5.25563998993535
F         0.79966141935930      -2.54403731515668      -3.26389899391512
C         0.87220301308553      -2.92155332757491      -5.83067446364245
C         2.96523581203132      -3.95262181720560      -2.64361010862528
C         2.97963408630117      -1.50856084775768      -4.17656050595286
C        -0.64269093144805      -2.66008532694544      -5.60048099385134
C         4.50395803668870      -3.78135841640520      -2.43748172711165
C         2.62986595617187      -0.15534942714930      -4.85184202887648
F         0.95457480615040      -3.96811201343416      -6.66327433084834
F         1.33798498380265      -1.84824013164945      -6.50060393303631
F         2.76842610996410      -5.27595316423516      -2.57063941407969
F         2.40613109479062      -3.42290767149961      -1.52380027946946
F         4.28035153942569      -1.71426965023756      -4.43313611283284
F         2.89175264762901      -1.19686054379278      -2.84197785353698
F        -1.29660612105626      -2.63918164326515      -6.75957728494757
F        -0.83912132822007      -1.46928363200257      -5.01219066638788
F        -1.20815251364426      -3.58240296589165      -4.82889689899170
F         4.91187476128623      -4.65763562157081      -1.51442249029955
F         5.20080713063434      -4.00506528449071      -3.54138165841055
F         4.80913558876855      -2.56692172833511      -1.97732727759770
F         3.00565512283943      -0.07137894575274      -6.11204199065041
F         3.23555263906646       0.84136464080594      -4.18254910147712
F         1.31275931039106       0.09275267496183      -4.76511761504195
