69
C19H36F6N2O4S2 optimized with ForceField in AMS.
N        -0.52546815172247       1.78914256264176      -0.20703389555578
C        -1.38504198183881       2.32612482609548      -1.31207680295270
C        -0.20984723474633       2.90848640594683       0.74026263006811
C        -1.20564212798224       0.67610703880069       0.54312967792270
C         0.75425080596977       1.32533171830003      -0.84712582059812
C        -2.67248094407674       3.01448796244504      -0.82851888871573
C        -1.45347927471461       3.64798796740654       1.27628128769770
C        -2.34129193790243       4.14686781646952       0.13901337734541
C        -1.51263561398698      -0.60086424187600      -0.27663742387662
C         1.77409831443211       0.63956598369722       0.09701321766583
C        -2.19428457451820      -1.64942528486132       0.61132430131968
C         3.04928584274798       0.26330862397923      -0.66994313925182
C        -2.48023037775581      -2.93982239027011      -0.16386048855343
C         4.05354457849490      -0.45829482313281       0.23733832676583
C        -3.17092816146542      -3.96851972460811       0.73828166730845
C         5.32952395963768      -0.81468102014495      -0.53455710293379
C        -3.45049647286110      -5.26336207518096      -0.01470695473857
C         6.33256696656231      -1.53893458735270       0.35883520626434
H        -0.81766042707237       3.08409158920219      -1.90200832698620
H        -1.65384475191062       1.53545140533856      -2.04284433213228
H         0.34920149248980       2.53656880032323       1.62563783517797
H         0.44122561875739       3.66620757751260       0.24626051640997
H        -0.59843176962571       0.38595015876554       1.42870985595779
H        -2.16582228668438       1.01808215978781       0.97542911860226
H         0.53660748850784       0.62732894337587      -1.68642468223135
H         1.27215827184190       2.18928883678288      -1.32537448543827
H        -3.20354430293004       3.43929457727455      -1.70778971741478
H        -3.36734698495122       2.28848685097793      -0.35853382592889
H        -2.03794235303566       2.99879942725049       1.96099723468778
H        -1.11877204136851       4.52110421624837       1.87727643741652
H        -3.28236419726453       4.56444154471361       0.55774982425382
H        -1.81847251728029       4.96171253580374      -0.40865454570076
H        -2.19610529464812      -0.36931483108544      -1.11844419106136
H        -0.58013594279991      -1.04343885280763      -0.68193484080662
H         1.34506278064356      -0.28926101451283       0.52554108897804
H         2.05754059015134       1.31883473761110       0.92629618886044
H        -3.15190622493863      -1.23522407869132       0.99796964677319
H        -1.53617265398926      -1.88258637350048       1.47758919601967
H         3.51908381318151       1.18647937767844      -1.07600850939320
H         2.78447005884228      -0.40114407979106      -1.52210377883248
H        -3.13403964165811      -2.71232948371816      -1.03464193431761
H        -1.52312893106732      -3.36274959120055      -0.54185928534961
H         4.31409862180333       0.19864717577554       1.09654430410200
H         3.59008385163337      -1.38939001336243       0.63247112239850
H        -2.52407199570062      -4.19451502105712       1.61379953995075
H        -4.13393944889282      -3.55395578743839       1.10917993260317
H         5.07571911604354      -1.47069368604598      -1.39580707749949
H         5.80121097836662       0.11281593846031      -0.92666602967504
H        -3.92949620700671      -5.99620927501901       0.66805179653749
H        -2.50550557239539      -5.70034738832418      -0.40213995270856
H        -4.13933339175669      -5.06626487667217      -0.86028999513059
H         6.62149845944331      -0.89463472390064       1.21638330096490
H         5.89526961613343      -2.48559987778142       0.74172726540178
H         7.24492136592130      -1.78087067548475      -0.22629485772412
N        -6.90232601728952      -5.13020069656789      -3.14499913328339
S        -5.64480781981591      -4.13974583039503      -3.49852557108551
S        -6.90259843871551      -6.73275169919136      -3.49177445622735
C        -5.88635662137758      -3.42729929037490      -5.11231449679038
C        -6.54401693229273      -7.65310198198146      -2.01079641877253
O        -5.59134203849032      -3.03420394990705      -2.48276636849664
O        -4.34838060170060      -4.90026852161206      -3.48266908678727
O        -5.87804119375703      -7.05548038574663      -4.54340536067138
O        -8.26588364112837      -7.12745956895775      -3.98383401442351
F        -4.84929016169416      -2.55717379465171      -5.39100250159934
F        -7.08335647053488      -2.73721531490608      -5.13929376319920
F        -5.91260222102803      -4.42796661444799      -6.06492583346919
F        -6.59583090846255      -9.00652300671337      -2.28445850804509
F        -7.47559875595142      -7.34533733091463      -1.03732445294826
F        -5.28142421651866      -7.32881163127666      -1.55631669664729
