47
C13H26F3NO3S optimized with ForceField in AMS.
N         0.97409594906328      -0.31132324374624      -0.00006504429352
C         2.04810581427046       0.06630573135882      -0.96974043019958
C         1.63752541522242      -1.23539303842998       0.97057768808394
C         0.48340377647178       0.90460421539134       0.72748831521455
C        -0.12320560531917      -1.02679063264508      -0.72923332384798
C         3.25260176970545      -0.81821264065453      -0.71414485835297
C         3.13482893072087      -1.16945645075190       0.74139748647702
C        -0.25452770520993       1.93396681541672      -0.16261580227576
C        -1.31404899194186      -1.45784714028867       0.16013736644556
C        -0.56800345280005       3.20939023651663       0.62899301000870
C        -2.30769287794550      -2.30672870406710      -0.64219381590515
C        -1.30066810139415       4.23297760973945      -0.23415619644821
C        -3.49281298028331      -2.73692325126690       0.21766742762516
H         2.38763775909180       1.11904829533095      -0.83482594167271
H         1.73397355315351      -0.02631345123109      -2.03470678259403
H         1.33551192361522      -2.29672161893715       0.81481502305449
H         1.40781234692630      -0.99694012140317       2.03431379585215
H        -0.19521855310237       0.61443072536230       1.55979279452289
H         1.34537874405523       1.41555859743614       1.21708541931142
H        -0.51611774879064      -0.39686655130930      -1.55773588516634
H         0.29272575875126      -1.93540609652510      -1.22439460274184
H         3.18596575661517      -1.73990528343738      -1.33382496312459
H         4.20402001447511      -0.28931324642466      -0.93091455816462
H         3.57873066211613      -0.36100039024621       1.36396083083207
H         3.63420599646330      -2.13619428606094       0.97095550241058
H         0.36187470618998       2.20099372969329      -1.04657005700548
H        -1.21349549072795       1.50705457286676      -0.52316075183799
H        -0.95818350439543      -2.04655575049477       1.03165021370803
H        -1.85087069676498      -0.56349954615856       0.53910812407935
H         0.37672434561800       3.66414046204679       0.99877432208858
H        -1.20453184148677       2.95721591412896       1.50512196298079
H        -2.68635660994129      -1.71915344008502      -1.50695546289070
H        -1.79824668223984      -3.21573548222252      -1.02981295132668
H        -2.25732461400301       3.81007045784558      -0.60812660432146
H        -0.66875447760752       4.53236406954353      -1.09726898782209
H        -1.52512035156529       5.13625081596849       0.37147338223893
H        -4.02984217447500      -1.84706772355626       0.60960462315193
H        -3.14542537912927      -3.36120809295493       1.06821209392538
H        -4.19867148071245      -3.33489130153004      -0.39656605514868
S         8.53980660200002      -0.57221191993251       0.59244418932859
O         7.92758925898604       0.04078911635079       1.86076587198642
O         8.15406934801782      -2.05499814666260       0.70096845237204
O        10.04441789395900      -0.58039722051004       0.90107262152873
C         8.07431445036887       0.23863778565051      -0.96343607465657
F         8.48330553348167       1.55813942227025      -0.93833868807058
F         6.70365803543436       0.18776518077030      -1.11815878488998
F         8.67908362976273      -0.41031347265493      -2.02276351436978
