48
C14H25F3N2O3S optimized with ForceField in AMS.
N         1.36927453246543       2.27212362930390       0.04765602937473
N        -0.83411446833966       2.43491443812819      -0.21222608362639
C         2.74971618123149       1.86087441061518      -0.20137231307388
C        -2.16835933624678       2.24418977060662      -0.78012166235848
C         3.01823604054250       0.45881785321286       0.36609551184057
C        -2.41315284388288       0.76755465279693      -1.12540405402589
C         2.08047541924596      -0.59652350673834      -0.24084572605915
C        -2.35130869449444      -0.13074233663251       0.11904490961777
C         0.34197580316694       2.18504610165837      -0.82015634432249
C         0.82615231936913       2.59433755208125       1.23871188195073
C        -0.53969541898373       2.70370174858683       1.07573285980547
C         2.42760356971233      -2.00392113728822       0.25263537925915
C        -2.56387014615362      -1.60175117590077      -0.25195281937530
C         1.44743567346337      -3.03339295846815      -0.30317836387382
C        -2.48117310684595      -2.49581117949811       0.98143513101641
H         3.44184957474507       2.59047707604470       0.27181934566480
H         2.95559803835729       1.86401044952450      -1.29443143636988
H        -2.26464404772515       2.85885564506201      -1.70073392974384
H        -2.94351807361153       2.58889198158011      -0.06071334000554
H         2.89353103927126       0.47806177686607       1.47080424161354
H         4.07332521693919       0.18681516735613       0.14441645489524
H        -3.41686029544419       0.67477828619495      -1.59439799360132
H        -1.65887955832980       0.43184276943453      -1.87025188520020
H         2.15414064525516      -0.56575322264047      -1.35032577146075
H         1.03302106438799      -0.36874831573682       0.05032540041248
H        -3.13411954177474       0.18738044647708       0.84211647193219
H        -1.35940243378915      -0.02635252183674       0.60890544181928
H         0.43986468956985       1.85949580905936      -1.84859357510663
H         1.37408880458475       2.67904941247830       2.16825514479062
H        -1.26890490782948       2.89005756516477       1.85348565922817
H         2.38694067670668      -2.03279835960378       1.36354298296813
H         3.45623360470268      -2.27223081120214      -0.07209240452842
H        -3.56116667192510      -1.73055406816754      -0.72528472244774
H        -1.78445985342984      -1.92006595397756      -0.97844329373885
H         1.47644080002041      -3.03665387001794      -1.41361493398417
H         0.41607692901285      -2.80058576589420       0.03179073225411
H         1.71831438807419      -4.04481760768177       0.06529833243373
H        -3.27942562471111      -2.23036574900475       1.70664906498169
H        -1.49219189360062      -2.38204545399330       1.47061144712796
H        -2.60699912538213      -3.55744567605722       0.68194214143604
S        -0.94219775252311      -1.35938257770516       6.29952464871016
O        -0.38815821159231      -2.57975261718292       7.04890745876348
O        -0.65677070192027      -0.19893938470868       7.26355661298486
O        -2.46251409202946      -1.54247779223987       6.41326123519387
C        -0.31360293521645      -1.14030998227405       4.61208668542124
F        -0.60165994526353      -2.26682351094857       3.86873509492980
F         1.05422010659415      -0.95301042793535       4.64868793482456
F        -0.91372246237365      -0.03901651879775       4.03278640385196
