23
C7H8F3NO3S optimized with ForceField in AMS.
N        -0.71991680790294      -0.01166493493030       0.01975888236443
C        -0.05020530676766       1.18033459351913       0.01109876326100
C        -0.03347814305752      -1.19442950668027       0.00684708175845
C        -2.18423383543409      -0.02086676032088       0.00276646828942
C         1.34624091706564       1.20831152115776       0.01079105572065
C         1.36399964643540      -1.20281332921857       0.00448239421065
C         2.05572079450868       0.00764935187362       0.00882442480559
H        -0.59395206634235       2.11763905021747       0.00390834240438
H        -0.56450486244406      -2.13893885351015      -0.00242869237559
H        -2.57989320269551      -0.91944593502406       0.52398368690601
H        -2.59104379990909       0.87336844560500       0.52317031386769
H        -2.54313371366047      -0.02296697797074      -1.04784817723246
H         1.86999198169008       2.15477852043806       0.01046012473781
H         1.90496821470014      -2.14042670222985      -0.00247609710191
H         3.13810152408910       0.01395974442324       0.00749200442172
S         4.75934293180544       4.98373618658811      -0.98871320797200
O         5.70741484766175       6.18363076235742      -0.84975700221448
O         4.54232144037534       4.88624206482834      -2.50572525668256
O         3.42028679284456       5.53751131836055      -0.48036341131879
C         5.32310690865478       3.45577548073926      -0.18673750984664
F         5.43221495161438       3.66193383943039       1.17523803550342
F         6.55407522391867       3.09255018157554      -0.69794129126993
F         4.41316390204972       2.44629097057094      -0.42761993673688
