22
C8H11NO2 optimized with ADF in AMS.
N        -0.90027301142310       0.45990406479604       0.17625123363104
C        -0.13733628027114       1.17970097724407      -0.70350876705278
C        -0.31615501331415      -0.31520923703860       1.21080702526391
C        -2.31184245506613       0.77550234456904       0.32103778401391
C         1.20341755427667       0.98945858916520      -0.82168856366508
C         1.09568586850028      -0.63470885191147       0.96737518250979
C         1.81817238837342       0.02399236134890       0.02618446894912
H        -0.68867073871370       1.88430968900028      -1.32544679090455
H        -0.94615763349495      -1.19166907060909       1.42912391779850
H        -2.84502444468414      -0.11131453348326       0.69190455397288
H        -2.45887365352350       1.59978128958788       1.03801604460386
H        -2.72861522022759       1.06026680713766      -0.65379753790444
H         1.77193052869725       1.55162323239535      -1.55917747002436
H         1.54454170716809      -1.39538437721921       1.60616130831690
H         2.87926933120643      -0.20264133901510      -0.09811836406179
C        -0.27444613677613       2.07718767269653       4.22673992768299
C        -0.03723535387000       1.60321782583996       2.81057891280357
O         0.49334000630589       2.28337680241469       1.94904315228435
O        -0.50971317771877       0.34952526574751       2.64499384283683
H         0.30511913008588       1.46341260885083       4.93240131129657
H         0.03386482645526       3.12608390590084       4.31123739048569
H        -1.33529654988584       1.97210238478195       4.49730069476307
