43
C13H27NO2 optimized with ForceField in AMS.
N        -1.38125553624831       0.18307747590226      -0.06536790666497
C        -1.65331540858078      -0.99015442462167      -0.95282513726135
C        -2.48858389706504       0.17435961946815       0.93934613246854
C        -0.06898584299596       0.00620136408872       0.63845759497518
C        -3.02290281261930      -1.54432896943176      -0.60736929413374
C        -3.21873104788885      -1.14941401397890       0.82935228420262
C        -1.42805656563152       1.44432762950225      -0.87394424111393
C         1.16736357986020       0.03631731714185      -0.29311123285401
C        -1.13938024758366       2.72680938705478      -0.07253377644973
C         2.43394588217830      -0.37231365372753       0.46802369027062
C         3.66365226651698      -0.33577989682408      -0.44655247409915
C         4.92416536185718      -0.74033288001150       0.31103531036313
H        -1.61142905781842      -0.74114103178173      -2.03822667704038
H        -0.92286327372980      -1.81723507311883      -0.79615009689230
H        -2.13725511916548       0.32736631967634       1.98575191116173
H        -3.24058664934656       0.97381479673543       0.74372230340734
H         0.06628280507219       0.79026916180482       1.41619589108147
H        -0.07332275269548      -0.96113292030493       1.19336426605575
H        -3.79786341930895      -1.06024777838835      -1.24217949283116
H        -3.06885241092921      -2.64795073136232      -0.73621383850892
H        -2.74259856434640      -1.90078383245220       1.49774701750441
H        -4.29711868637359      -1.05112068019673       1.08238046304808
H        -2.43168553007300       1.55526691923771      -1.34598980478724
H        -0.70971362090434       1.39816481501743      -1.72159160817409
H         1.31753186755572       1.06191623062305      -0.69006818788241
H         1.02747446775747      -0.65013674266310      -1.15385914549934
H        -1.77315706824637       2.79571796289578       0.83448529266965
H        -0.07265224612230       2.78296354673014       0.22466961498939
H        -1.35333149941685       3.60987241523427      -0.71039992515557
H         2.30683903633537      -1.40194457944597       0.86867302306705
H         2.58927573290701       0.32293891704931       1.32229448689631
H         3.51755680865123      -1.03419301830552      -1.29919088777545
H         3.80134174696256       0.69054090952825      -0.85152980990755
H         5.79241887727771      -0.71845570318739      -0.37896914682325
H         5.11567537773182      -0.03479821586860       1.14737869148975
H         4.81903861428436      -1.76963188022083       0.71529725495315
C         8.58610240899162       0.12966058751758      -1.27087375431280
C         9.98665028595843      -0.20832575337673      -1.67308076085105
O        10.91029644037633       0.01047915550361      -0.90626000601462
O        10.21108102551394      -0.70414870653524      -2.76571299347733
H         8.31666012980957      -0.43659326043712      -0.35485761676836
H         8.50935307642830       1.21760907978494      -1.06327836154762
H         7.87113168546387      -0.13290573655568      -2.07993220067788
