34
C10H22ClN optimized with DFTB in AMS.
N        -0.06448592062298       0.03268454145354      -0.07344713242425
C        -0.94760266934632       0.53487610556501      -1.18400557726557
C        -0.56451915254315      -1.31477071577458       0.37645947224351
C         1.30481246053955      -0.14240649924993      -0.68182479245561
C        -2.42099350965603       0.58034017928657      -0.80749843870984
C        -2.03794040970844      -1.31385348162261       0.76177421832825
C        -0.04088168965259       0.96848743092171       1.09805577028385
C        -2.89570544544074      -0.81125504777612      -0.39658261871671
C         2.39607804861985      -0.59526628899983       0.28402149032343
C         0.51999497414008       2.35310689699161       0.80569326734419
C         3.68580006828569      -0.83276039975628      -0.50282103257262
H        -0.81190590328042      -0.16946891536803      -2.01365418911247
H        -0.58446241917371       1.51946627927977      -1.48304829742346
H         0.04869775596389      -1.63320729044610       1.22138535570569
H        -0.41298027814254      -1.99289545290462      -0.47154370568039
H         1.57910744330118       0.81152064492129      -1.13846849140364
H         1.18431074920605      -0.88459966318155      -1.47926869711159
H        -2.96935437370954       0.91370630788409      -1.69253958257554
H        -2.60957831884093       1.30350942717984      -0.00713691901668
H        -2.21555267266543      -0.71053026593341       1.65832929574802
H        -2.30557867522833      -2.34684010793240       0.99983008491663
H        -1.06609446892802       1.06619506620407       1.45925041442556
H         0.54834295711060       0.48697915676135       1.88215029479396
H        -3.94599903814932      -0.77745331061870      -0.09733110958252
H        -2.79564182430039      -1.49388154275031      -1.24579255962291
H         2.57994681481891       0.16043650675872       1.05384659761675
H         2.10875496247630      -1.52521129605486       0.78079683112514
H         0.47962264940649       2.92739687829278       1.73150075091030
H         1.55648776878162       2.31216141193744       0.47660710182217
H        -0.06985527949509       2.87661430946421       0.05537872434936
H         4.47762480475584      -1.14825358727355       0.17594008206517
H         3.53604222469969      -1.61013383025267      -1.25198368657067
H         4.00081967479770       0.08172900619168      -1.00680743519246
Cl       -0.24128737071945      -2.22455627219813      -2.69279283076504
