40
C12H25NO2 optimized with ForceField in AMS.
N        -0.06749681431653       0.00073390794011      -0.07320181328029
C        -0.96747644130329       0.47947674752408      -1.17305823036468
C        -0.58253847922993      -1.31372346035275       0.43418440954805
C         1.28449134644073      -0.22000332383930      -0.69439019698209
C        -2.44779951813585       0.57754185698455      -0.77278097026631
C        -2.06531387724926      -1.28736568235786       0.85849828735970
C         0.00019044585172       0.98497079398838       1.06340762855865
C        -2.95478113322708      -0.76828077791660      -0.26650479720108
C         2.41135916367775      -0.64949014556834       0.27730660136711
C         0.58592905790265       2.36595288248953       0.71805577010485
C         3.71802483004056      -0.88348086757551      -0.47746656738419
H        -0.91515479899586      -0.21783185435233      -2.04209680618045
H        -0.63902146850753       1.46297526244911      -1.56955895600861
H        -0.00210495199159      -1.65540783848069       1.31787811514995
H        -0.47385072917399      -2.10235176323971      -0.34580012899026
H         1.61978588202275       0.69567210657309      -1.23104811255904
H         1.21260053223188      -1.00226328156505      -1.48584528591642
H        -3.04524878763019       0.87502438464241      -1.66155631450302
H        -2.59845310099479       1.36161213229690      -0.00580940463487
H        -2.20691342336293      -0.67253166921586       1.77166387496919
H        -2.38384343185844      -2.32028413040574       1.11793429410181
H        -1.00122247376678       1.17102986773773       1.49683890792021
H         0.58810830286572       0.56493312263898       1.90798520897046
H        -3.99643368337212      -0.65812461343849       0.10396234125513
H        -2.96304817709183      -1.50198516302826      -1.10255918337062
H         2.60240603724761       0.13628405920313       1.03588806331371
H         2.14926036712450      -1.59323855426349       0.79628853881347
H         0.61696910205995       2.98038162883492       1.64280240626753
H         1.62464828714279       2.29664240140847       0.34011268737401
H        -0.04992882191645       2.90858000200538      -0.00913735569846
H         4.51181944129013      -1.18796767306918       0.23731153463840
H         3.59090801805257      -1.69078986591512      -1.22988484034189
H         4.04024033956201       0.04803700127199      -0.99012800810676
C        -4.01316778437466       3.63757409474950       1.26661978999105
C        -5.02059942841250       2.78235976883804       0.56482060283114
O        -5.50614658987681       3.15463600127698      -0.49118969906898
O        -5.35574107430223       1.70978081937695       1.04095191748120
H        -3.13076673549277       3.79135378465119       0.61031772387596
H        -4.46450686055960       4.62266081775823       1.50819099975772
H        -3.67766113297028       3.15385130174464       2.20902833820872
