49
C15H28F3NO2 optimized with ADF in AMS.
N        -0.70971117412260       0.09656248578811      -0.34137138030310
C        -1.71222951158437      -0.42110935486647      -1.36390584839774
C        -1.21680090387837       1.40510272512415       0.22641792784888
C         0.58812331355353       0.32942010370201      -1.10490510824195
C        -0.50882440836692      -0.89437349612544       0.79530647266577
C        -3.10671997939300      -0.57669348845689      -0.78501135569842
C        -2.61718279573089       1.30329916228997       0.81660953812581
C        -3.61323702137996       0.74416635486658      -0.20043205731774
C         1.77693755935653       0.77482621639931      -0.27465662649821
C         0.07342348282532      -2.23038402369383       0.38510573846406
C         3.00970415712914       0.86787456372839      -1.18292433856864
C         0.20700000429328      -3.16164677788194       1.59037952831156
C         4.26099864738027       1.26606004989081      -0.40747350625775
C         0.72501875681338      -4.53435163095220       1.16367933424780
H        -1.27732833375117      -1.33882339089585      -1.80425993455351
H        -1.72127194495719       0.34594298270348      -2.15731735587871
H        -1.20782953013177       2.11623053493224      -0.61573857553197
H        -0.48444811700807       1.74148037403250       0.97323883577615
H         0.33829830061166       1.08395608932420      -1.86884375721970
H         0.83629906589695      -0.62117317959865      -1.61588724215765
H        -1.49125962183515      -1.03167024507236       1.26509118318920
H         0.13498106380041      -0.38140147683098       1.52683566199579
H        -3.13407436227959      -1.37907034319394      -0.02738389882326
H        -3.76130528357677      -0.91454988499939      -1.60503006277972
H        -2.91151927781353       2.31773364228629       1.13506438070353
H        -2.60853017214782       0.68793429884207       1.73177239037695
H        -3.73619634706531       1.47483377211422      -1.02190838783820
H        -4.60382973015318       0.61730253640558       0.26501212558779
H         1.99413046553784       0.03289117055957       0.51225184845769
H         1.60406233278545       1.74925365205428       0.21755390349555
H         1.05722187428080      -2.10395928428410      -0.09557143386147
H        -0.55874564050304      -2.70895271756324      -0.37974420794093
H         2.81772965338672       1.59977868091807      -1.98819546025227
H         3.15033722938754      -0.11294114619119      -1.66742667350340
H        -0.77130244340437      -3.27306954001411       2.09549978159003
H         0.89387157713411      -2.71635970115858       2.33419798970551
H         4.47944147538149       0.53165384806941       0.38438681591074
H         4.14410849335456       2.25321190268847       0.06935392685742
H         5.13792379098875       1.31201836852523      -1.06993705771130
H         1.69084384200328      -4.44219115530197       0.64287378680410
H         0.02247033004379      -5.01531193189803       0.46538369104889
H         0.85883575972873      -5.19919983443683       2.02987040102113
C         1.14434936584057      -2.86499506212953      -2.71508805954285
O         2.03490096411906      -2.20579054903734      -2.12327309954219
O        -0.09665584262839      -2.67673824191708      -2.78787839164493
C         1.64006335036451      -4.13306955543416      -3.48833839770651
F         0.91972992681156      -5.24827426711710      -3.14093639120478
F         2.95199695482133      -4.42988067520986      -3.26282729129776
F         1.49644562168091      -3.97133712008389      -4.84363334190968
