34
C8H18F6NP optimized with ForceField in AMS.
N         0.00966140791291      -0.01085319051517       0.01313261439806
C         0.92565411498152      -0.85883926047282      -0.80970950607715
C         0.91328154485599       0.85105069845441       0.83588484604200
C         2.33246627647064      -0.30982236969926      -0.67526507923968
C         2.33311606723375       0.34159227874035       0.67943182535837
C        -0.82139973103413      -0.87169642835124       0.91547891349998
C        -0.83123842728402       0.83745064602847      -0.89159148066805
C        -1.81396836839277      -1.79289543256790       0.18240133938112
C        -1.83611276515356       1.74925879739884      -0.16414071385584
H         0.63764117198354      -0.90322107653124      -1.88478698836531
H         0.95722989456992      -1.91394494383738      -0.45150071314555
H         0.63641457997893       0.87541646604650       1.91446603468973
H         0.91446017209461       1.91081375687535       0.49040990967139
H         2.51797834302130       0.45315803043105      -1.46362069653298
H         3.09920379234488      -1.11243215206245      -0.74366584898003
H         2.55257825879219      -0.41527132365263       1.46486645637295
H         3.07806880631753       1.16539351330090       0.73636326097862
H        -0.15896341890527      -1.51276497365422       1.54233205247902
H        -1.39738977154272      -0.24936238876979       1.63475486318193
H        -0.17462480197393       1.48351974840915      -1.51597913555484
H        -1.39770596130040       0.20782661908166      -1.61205046827118
H        -2.26453279161827      -2.49665564370457       0.91353779968617
H        -2.64178810877425      -1.20954713321743      -0.26966212155234
H        -1.31614116107720      -2.39049711606951      -0.60793153679792
H        -2.29538971060368       2.44209837353356      -0.90039998281494
H        -2.65584519202353       1.15746772463835       0.29145903208990
H        -1.34749482192858       2.35941252563864       0.62214963931974
P         0.22747291932116       3.90683281003852      -3.92383362975801
F         0.96619790215823       3.70378760218614      -2.38649332091159
F         0.90176029341498       5.48226290919591      -4.04311583445892
F         1.62474831418664       3.15660166417388      -4.58364587643825
F        -0.42455170700872       4.29986977065029      -5.46379894248960
F        -0.53176993772342       2.36889487478671      -4.01615317498261
F        -1.16198581399423       4.45288871669691      -3.07413723185419
