54
C14H30F2N2O4S2 optimized with ForceField in AMS.
N        -0.07587189321403       1.47454989466645       0.01411799681497
C         0.52160783747871       2.39716958238763       1.02865080931388
C        -0.75131879075283       2.37187324123449      -0.97303971948058
C         1.00434882316907       0.69682028872006      -0.67599188167747
C        -1.08263227665876       0.58734117286829       0.68274197853649
C        -0.02584911364664       3.78948434993735       0.78413489304877
C        -0.32109531478124       3.79675012790499      -0.68734244789284
C         1.75611532205967      -0.30090347798875       0.23827854017448
C        -1.76351115740094      -0.43664471759915      -0.25747638058191
C         2.98020930371424      -0.88370902590826      -0.47740774053223
C        -2.87852186452226      -1.18896342010932       0.47906618609300
C         3.71329760243272      -1.88983006466399       0.41810545005215
C        -3.57268088935447      -2.19533953212904      -0.44621815239351
C         4.92626979379430      -2.47977178069862      -0.29377428364834
C        -4.65360479022549      -2.97160385485758       0.29942850295245
H         1.63032760167823       2.46569537410472       0.93509003866324
H         0.31523851814974       2.09115712019371       2.07983698405429
H        -1.86128273940769       2.34584770333520      -0.87588602102770
H        -0.52277722193515       2.11454963395802      -2.03286020193143
H         1.74563338878507       1.40379907219439      -1.11704289739792
H         0.58962171115315       0.13255970295140      -1.54076609782630
H        -1.87515527615146       1.21560185089335       1.15260845250873
H        -0.61352130902087       0.03006707889101       1.52404429377645
H         0.70770083700969       4.57932918211887       1.05595887603060
H        -0.96683120438936       3.93273555539445       1.35985206445318
H        -1.11324793685931       4.53302725670974      -0.94437481977211
H         0.60834252980033       4.02729607528742      -1.25017712261807
H         1.08367251825419      -1.14004465894225       0.51503935037635
H         2.08883396282101       0.19853050468855       1.17240542059310
H        -1.02153594093418      -1.18182147341092      -0.61274069303867
H        -2.19490162322661       0.07382041599586      -1.14400337170173
H         3.67608068885742      -0.05905565189737      -0.74846426725594
H         2.65165746881938      -1.39182452733137      -1.41114166012894
H        -3.63044831800146      -0.46067453261717       0.85581619941012
H        -2.44173396812253      -1.72827408973091       1.34886089002832
H         3.02375020384121      -2.71638111408269       0.69730760654221
H         4.05345696466071      -1.38480022550631       1.34861476259305
H        -2.82637144664504      -2.91504350778606      -0.84817882836931
H        -4.04006615256206      -1.65754306372885      -1.29995365110407
H         5.43376210717584      -3.20319328725200       0.37859946923722
H         4.61122935554618      -3.01229514017726      -1.21654975632823
H         5.64587247983593      -1.67640918173968      -0.56022373640063
H        -5.14683872289219      -3.68185626206022      -0.39705054830599
H        -4.20583711535228      -3.54795636586101       1.13718546084634
H        -5.42111782067101      -2.27611716191561       0.70136559888230
N         1.48814667481249       5.99247758212797      -5.37746290028599
S         0.99261415723139       5.31608614643061      -3.97264077263697
S         1.41856491573163       5.16620997486559      -6.78827020612100
F         2.05204925738504       4.09261694434924      -3.54386890448284
F        -0.16376219384027       5.13849051427308      -7.33344319638702
O         0.96946343918545       6.35962335941710      -2.89244256184922
O        -0.38139145527025       4.73161428689673      -4.14276498244632
O         1.88856990148439       3.75348521862646      -6.58315540709296
O         2.28333476477122       5.84578760867167      -7.81115621816545
