44
C14H23F3N2O2 optimized with DFTB in AMS.
N        -0.88837219973963       1.46959987169511      -0.68350300665430
N        -2.53851137380546       0.79680311854563       0.52029529961077
C         0.12157496299475       1.49496543875114      -1.73879550847828
C         1.37242925176800       0.73770451249112      -1.28329494363151
C        -3.65596697670150      -0.00937150809756       1.00183579412809
C         1.06734677205048      -0.73516218042028      -0.99747979863814
C        -3.20723477922812      -0.90393597756209       2.16062036890999
C        -1.87998327360603       0.58613617687630      -0.61670485874267
C        -0.90169728045276       2.25164601247260       0.43955007146595
C        -1.94594876007320       1.82877377448029       1.20031768178028
C         2.33027524944109      -1.51763588659012      -0.63058022160398
C        -2.15203712488414      -1.92548136785605       1.72572478279303
C         1.98945602828210      -2.97315675521321      -0.31530130672373
C        -1.68800704012046      -2.78222082790755       2.90103133411945
H         0.35711868992467       2.53943548607279      -1.95796687454372
H        -0.31428956940829       1.01782667189973      -2.61982615212667
H         2.11061399150079       0.81434242394636      -2.08668379773077
H         1.78853868301793       1.22012393441652      -0.39230557650221
H        -4.44910128528488       0.66981024158758       1.32687533275690
H        -4.01231241954112      -0.60887015675740       0.16145702534978
H         0.59980605744151      -1.18177023142582      -1.87913084706957
H         0.35015409953918      -0.80296674967495      -0.17239615961312
H        -4.09227602866444      -1.42340170418430       2.53939168953157
H        -2.81334817062450      -0.27739811521282       2.96782550359875
H        -2.09251728540145      -0.15225452167801      -1.38386489110989
H        -0.18555589853158       3.03818143182710       0.60157538634413
H        -2.31328402289240       2.17729128698973       2.14967274977220
H         2.81089091994043      -1.05537342716070       0.23945362690536
H         3.03906028673830      -1.47931964258642      -1.46442131260063
H        -2.56882482204237      -2.56711046678450       0.94509656899261
H        -1.29102111769297      -1.40013055998207       1.30024498420804
H         1.50657602171868      -3.44400623206013      -1.17179621036234
H         1.31054977800293      -3.02914855234797       0.53696654783958
H         2.89675927874347      -3.52802605694818      -0.07552837057301
H        -1.26044048284039      -2.15768280848310       3.68720516149181
H        -0.92726027118916      -3.48519458039129       2.56274115405848
H        -2.52215696501899      -3.34642241673402       3.31938454305232
C        -1.79586960244180      -1.93986407982662      -3.37838600507436
O        -1.42448756523824      -0.80168994773516      -3.06384369670736
O        -1.85228363861577      -2.56107111029009      -4.40917463872439
C        -2.31683686563307      -2.74702956201402      -2.03365553250551
F        -2.81860544119129      -3.96801829785852      -2.21133020553665
F        -3.28708310335922      -2.02161661552444      -1.38591804501045
F        -1.31649633188109      -2.85999872374459      -1.12059956194584
