37
C11H23NO2 optimized with ForceField in AMS.
C         2.68433234645781       0.35398775494261       1.55692276538264
C         1.63469812681012       1.28669000211461       0.97198267105760
H         1.36467635007416      -0.86404090729521      -0.89179657397107
H         0.39788098124445      -1.69864073229837       0.36990731862705
H         3.17440448639847      -1.41769548690379       0.38703724188196
H         2.15916869560270      -1.72574472134650       1.85389510039595
H         2.62118772475267       0.35599240790507       2.66750757257439
H         3.70785237203883       0.66567184296593       1.25228040797151
H         1.35311464988653       2.07867434372831       1.70422523985091
H         2.09991261040442       1.80341279826500       0.09915129465972
H        -1.23493482640736      -0.45507633604056       1.49722149110892
C        -0.44913650580944       0.30214598600258       1.70668819414549
H         0.09322610953115      -0.04531583141188       2.61384557691220
H        -0.94704034929509       1.26595197149839       1.95378866542003
C        -0.20258559673848       1.13937726909971      -0.60413541831066
H        -0.33841116953701       2.21912007276602      -0.36166928300194
H         0.45024580923010       1.12187210884904      -1.50665546314318
H        -2.32351241438833       0.71293218125256      -0.15940560329770
H        -2.96249255066341      -2.15263531382569      -2.61916343300719
C        -1.62830990879329      -0.80640050375860      -1.56444100719056
H        -0.80582130531911      -0.94263316173993      -2.29906457318116
H        -1.50929600997919      -1.53640874626641      -0.74081540957907
C        -2.95900977845035      -1.10464660023188      -2.25148842283183
H        -3.10913031437446      -0.42411141635516      -3.11689115673271
N         0.47316761151577       0.46392579030323       0.55166468685062
C         1.07781088590968      -0.83982371484250       0.18433676605272
C         2.34571719038072      -1.02061291763832       1.01384333381935
H        -3.79840844509338      -0.97799025706304      -1.53460768662907
C        -1.60760465352187       0.62169189044364      -1.00254932710047
H        -1.98059924067678       1.30878854960857      -1.79437761244080
C        -0.98250166744487      -5.04463656900644      -0.65844123841723
C        -1.94593668270712      -5.30186704791826       0.45662925564241
O        -1.90845356710499      -6.36068883883436       1.06206533865038
O        -2.76998299924180      -4.45627805114278       0.76542338775118
H         0.05454424470920      -5.04864831034227      -0.26206537789783
H        -1.08324272430487      -5.83812973646750      -1.42873207169549
H        -1.18306799049558      -4.05941527911580      -1.13053229822708
