41
C11H21F6N2P optimized with ADF in AMS.
N        -1.26063978992101      -1.68605316342161      -0.10953989387720
N         0.87536911253445      -1.64547715004945      -0.50534895911186
C        -2.58122544631149      -1.37117854680012       0.45677794384828
C         2.29829403646813      -1.27815728369496      -0.44644334366747
C        -3.10970283144751      -0.02236520343527      -0.02980313870306
C         2.56807995401033       0.08276949911289      -1.08660099570206
C        -0.07649583609471      -1.26645396893301       0.36068106834827
C        -1.05817047863946      -2.32939901223269      -1.30982745036825
C         0.28057232723993      -2.30450687452446      -1.55771249881596
C        -2.43047440669798       1.17809366894738       0.62704262658582
C         2.12257787452954       1.26526849388482      -0.22836696640094
C        -2.96393294585969       2.50139096473205       0.08216328867317
C         2.37322581459149       2.59980371784553      -0.92698384224484
H        -3.24227046887016      -2.19696671304237       0.15607456209804
H        -2.48440975436025      -1.40028460265259       1.55406424689181
H         2.59913735536004      -1.29793072399951       0.61352574886625
H         2.83992192214489      -2.08328695711649      -0.96423286548274
H        -4.19286676005724      -0.00094866628077       0.18785383867118
H        -2.99467657453090       0.03232213518747      -1.12508500169129
H         2.06744045598180       0.12063977608342      -2.06853787989400
H         3.65594552307007       0.14534732674846      -1.26991545816418
H         0.08407318085127      -0.72156784201482       1.28100199197757
H        -1.88151713295873      -2.69277584037728      -1.90922126760304
H         0.84727677766589      -2.64060533829802      -2.41506536251922
H        -2.57545621055112       1.12573847726727       1.72352615158218
H        -1.34752859300053       1.13737157956136       0.42766582329179
H         1.04249661907528       1.18150657261389      -0.02711988091937
H         2.65212039251553       1.23264717591772       0.74341415344705
H        -4.05069045644844       2.58390092907565       0.24176985972742
H        -2.76209486625695       2.57244329278009      -0.99636957758484
H        -2.48162400956847       3.35595711375933       0.57964546136016
H         1.80553136430158       2.64357000938118      -1.86745015347342
H         3.44283080676302       2.73011138078923      -1.15598317919539
H         2.05609962232684       3.44226450123483      -0.29501661457792
P        -0.83496216655928       0.74669463091004      -3.45857575140368
F        -1.97003246586226      -0.46452288518000      -3.27068204538148
F         0.33974800750141      -0.41409937663627      -3.70835757749182
F        -1.14070258670391       0.80256545997019      -5.06121494032122
F         0.30993016440830       1.92376249625272      -3.58983531253686
F        -1.99664984894801       1.87343673493679      -3.15184412467048
F        -0.51953120039169       0.65391154559738      -1.80978054346642
