55
C15H32F6NP optimized with DFTB in AMS.
N        -0.65352403394876      -0.49037225540428      -0.37775004956033
C        -1.55556955761973       0.61913206246516       0.07196063106243
C        -1.36024862461331      -1.29167881681868      -1.43905314039245
C         0.56399577017839       0.10276187276344      -1.03718437829657
C        -0.28146326140565      -1.35469342202513       0.80030029389977
C        -2.91629523164076       0.12393681449671       0.55170426621478
C        -2.72290324958808      -1.81137585829845      -1.01133920539871
C        -3.62477078277614      -0.67270751408756      -0.54273195680312
C         1.42354571511440       0.98353852736032      -0.13502810856146
C         0.86637352085274      -2.33138539439851       0.54606817774079
C         2.70704203604643       1.36077762338329      -0.88623079970684
C         0.92346848139052      -3.42379639231103       1.62491385585957
C         3.60637785282673       2.25429114153814      -0.02688152312258
C        -0.09927267447477      -4.55726885373998       1.42421053584690
C         4.88893536943175       2.62365999809285      -0.76971793465487
C        -1.35422817885291      -4.41370576832858       2.28533033917212
H        -1.68482739178383       1.28933968853161      -0.78269709748524
H        -1.04911717986401       1.16121134873151       0.87293626062512
H        -0.71276615877314      -2.12106384235782      -1.70752759424276
H        -1.46921845740251      -0.63876956933183      -2.30809915828938
H         0.20460318522623       0.68880226556351      -1.88672730654039
H         1.14980740965472      -0.73127666522944      -1.42664516090646
H        -1.18131343572058      -1.90099150532854       1.07847666669335
H        -0.02845637824047      -0.68344176236884       1.62550173200595
H        -3.50795467835201       1.00398664311175       0.81810505502317
H        -2.80473858063963      -0.48609204425275       1.45208116545955
H        -2.62509631257872      -2.56443526538612      -0.22571616709169
H        -3.16045645028015      -2.30307471879100      -1.88355899595984
H        -3.85480512806965      -0.01189785389137      -1.38470237667709
H        -4.56494341770354      -1.07278231680808      -0.15642480281223
H         0.88493827224337       1.89537787669561       0.13993870894682
H         1.68987245703191       0.45825850161849       0.78525096828713
H         0.76263498414140      -2.80669870009977      -0.42805650027057
H         1.81506837356211      -1.78870602297560       0.55359900117762
H         2.44564870632298       1.88332749313502      -1.81212306017516
H         3.24754700468635       0.44859496627809      -1.15754505429622
H         1.92726183953535      -3.85570463300078       1.57846607494294
H         0.80903404337595      -2.97517852795447       2.61819722727884
H         3.85957978289469       1.72972009460214       0.90064642723693
H         3.06337985007628       3.16683623542145       0.24216104438268
H         0.38274793664925      -5.50402846024974       1.68651199895557
H        -0.38202426514954      -4.61825146448965       0.36955722391850
H         5.51411445051521       3.25731609316374      -0.14075160936785
H         5.45173609411782       1.72623720485980      -1.02864972545200
H         4.65645687251395       3.16494293826728      -1.68757016954394
H        -1.97787506640205      -5.30112618009829       2.17391367134809
H        -1.08561708162681      -4.30649140778773       3.33754570494964
H        -1.94644945793335      -3.54503313552414       1.99244016028789
P         0.62093934672376      -3.79300824813885      -3.31866606769622
F         1.88303436288478      -4.67160863113958      -2.77533320250815
F        -0.19701576123986      -4.11081042376839      -1.87805660786966
F         1.28130362574099      -2.42447054997817      -2.56384920807318
F        -0.66641273963608      -2.84357949238988      -3.77749264066296
F         1.41134346800780      -3.40730611321989      -4.68673435847345
F        -0.06787888072980      -5.09538922900700      -4.00151234782479
