32
C8H18BF4N optimized with DFTB in AMS.
N         0.62655495072587      -0.08079276993577       0.20725580248723
C         1.56810206671400      -1.10297871512761      -0.39144841156525
C         1.40163336352589       0.57625002851244       1.31954350505560
C         2.75453276177922      -1.23897698460780       0.56277385863113
C         2.35239152915235      -0.49077660462981       1.83106014912704
C        -0.56947588752158      -0.76245382554515       0.80354897493351
C         0.24780406179531       0.92593401771833      -0.84264374674874
C        -1.52633028410615      -1.37522801610843      -0.21033046193042
C        -0.55363877177496       2.09906513700064      -0.30488141267890
H         1.89444417138595      -0.73727435564643      -1.36482205911277
H         1.03153567696468      -2.04311375806461      -0.52300190424304
H         0.71111319756253       0.95036182206610       2.07523389923373
H         1.96451159063909       1.40481496833824       0.88782327408817
H         3.62837744621122      -0.75614528335579       0.11991530714453
H         2.98448557711598      -2.28714733193519       0.75950809864127
H         1.86250448453021      -1.15061330000210       2.55313900662086
H         3.21750200056419      -0.02103328776531       2.30013077683923
H        -0.18507817629437      -1.53697447461136       1.47188175545954
H        -1.10385566260082      -0.02402934875780       1.40573246213236
H         1.18456457896966       1.29723251200133      -1.26369334953441
H        -0.30345726531220       0.39378619556659      -1.62053070042085
H        -2.24579430089908      -1.98503969461496       0.33597268026966
H        -2.07510691519178      -0.60800845499849      -0.75384906943191
H        -1.01076745381673      -2.01386271871197      -0.92544064586174
H        -0.83223673077751       2.72351782508799      -1.15325695074064
H        -1.46294491769427       1.78668970094598       0.20775001528979
H         0.05472807034755       2.69977648509168       0.36919617977849
B         3.63605013213400       2.00610411997808      -0.74143207541602
F         3.19079482348687       0.93183051403031      -1.56952380906244
F         4.07789724584545       1.43830509412438       0.47151500404381
F         2.48382509940945       2.78922146061053      -0.45324766025184
F         4.60600467923001       2.73838368654593      -1.35533094277697
