55
C17H35NO2 optimized with DFTB in AMS.
N        -0.89893230755358       0.52266957363350      -0.33598719446824
C        -1.41010106310946       1.77401738561284       0.30913392149301
C        -1.60989791977528       0.33320539236710      -1.64640868134673
C         0.56110178032481       0.69468176001180      -0.66829100260221
C        -1.10915488660947      -0.64525740272303       0.59486586353833
C        -2.92705333444092       1.79066269413276       0.48224484459550
C        -3.12095984660324       0.27078839422453      -1.49667895540091
C        -3.64495667842474       1.55036757895065      -0.84517829968566
C         1.46678548803843       1.06784770111296       0.50116864357796
C        -0.60787438931056      -2.00476206823702       0.08774664529747
C         2.92293753671328       0.92362350751407       0.03760603863781
C         0.60916111637069      -2.50402239777736       0.87312262000087
C         3.89840182503141       1.15405196141952       1.19411961586582
C         1.03894069811138      -3.89096181061787       0.38662019749498
C         5.34523682319172       0.99061876714366       0.73252974919175
C         2.23637019900957      -4.40384975755083       1.18395225149096
H        -1.09989044868799       2.60707134671478      -0.32804744452754
H        -0.92419540133864       1.87347894168513       1.28164852341196
H        -1.20349012319973      -0.56898910751279      -2.11501789731663
H        -1.33925801818285       1.18754042261842      -2.27224249486330
H         0.61939521432306       1.46808395440120      -1.43775492073804
H         0.90394620018193      -0.25385984997011      -1.10156521299279
H        -2.18091949643440      -0.69944515607117       0.78973833541297
H        -0.61935485157209      -0.38045307771452       1.53542278244009
H        -3.19848749577704       2.77260457298475       0.87963643356493
H        -3.23583202633541       1.04210825178512       1.21684429778175
H        -3.42385960489975      -0.60427060871220      -0.91620147157031
H        -3.54493715156110       0.16596684029293      -2.49849094675301
H        -3.46930875737242       2.39886025528048      -1.51458319666420
H        -4.72080260366474       1.47173138791138      -0.67099659173909
H         1.28326956374619       2.09543692345849       0.83318616688758
H         1.29806689353382       0.40348763470557       1.35254298723950
H        -1.42762647724174      -2.72240543879949       0.19544383159599
H        -0.34920805332115      -1.96482503228925      -0.97138352166054
H         3.12127698098058       1.64334668395551      -0.76338558901294
H         3.06595508138406      -0.08071770318631      -0.37382342847029
H         1.44240451667381      -1.81325855532299       0.72300253159179
H         0.37424963480972      -2.53614891616576       1.94396290115100
H         3.68925773295932       0.43559699206596       1.99440286670869
H         3.75549604203038       2.16084405338463       1.60356814035851
H         1.31247467184851      -3.82135906929283      -0.66946567624348
H         0.20379602214454      -4.59393459152323       0.48159732852880
H         6.02662155304880       1.15068165152762       1.56865712908320
H         5.50680617497830      -0.01326130887440       0.33839557987154
H         5.58032187985109       1.71238862552884      -0.05102730474983
H         2.53224714101837      -5.38842293472854       0.82082791251872
H         3.08263571188089      -3.72462850758644       1.07364017823033
H         1.99014104871256      -4.48362195795098       2.24460236355140
C         2.26142539882288      -2.51161848011001      -3.91687209379536
C         1.46740843978086      -1.84135350575811      -2.77376285748213
O         0.28866618097194      -1.50418678618019      -3.01957033818049
O         2.07056106089886      -1.68743404679149      -1.68887297372457
H         2.57267213764384      -3.50508708374049      -3.59670367008816
H         1.64888368673119      -2.58715580313817      -4.81305868847129
H         3.15202373566948      -1.92011932829871      -4.12473134866543
