38
C10H22BF4N optimized with ForceField in AMS.
N        -0.10711899309163       0.02648934438160      -0.06925883452580
C        -1.01711441978708       0.53465058560709      -1.14779739035848
C        -0.62626296261637      -1.29442448111480       0.41535275835581
C         1.23584710152903      -0.18938344681431      -0.71056578960787
C        -2.49222234662441       0.64154894553483      -0.72679439622404
C        -2.10333863948485      -1.26608533591120       0.86034976907610
C        -0.01792247510194       0.98643400061505       1.08612903501875
C        -3.00885491617921      -0.70644208835288      -0.23336684158354
C         2.37307176025288      -0.64893611474734       0.23519519415746
C         0.58727010812024       2.36550923606817       0.76419179689371
C         3.66853060538792      -0.87096974162111      -0.54447259802099
H        -0.98340319894479      -0.14835217336082      -2.02900971752132
H        -0.68281752086043       1.52076210751218      -1.53346473291969
H        -0.03649905029581      -1.66032427416538       1.28367706518193
H        -0.53334081320634      -2.06626652769008      -0.38311177804036
H         1.57079781063534       0.73963805895669      -1.22076011655452
H         1.15017094220895      -0.94841582691041      -1.52336526610717
H        -3.09427320462096       0.95307609357353      -1.60860270622025
H        -2.63415957084509       1.42164989839188       0.04892910243619
H        -2.22473383172296      -0.67815083541231       1.79396234855374
H        -2.42658882664128      -2.30455424007438       1.09366708682860
H        -1.01463385047369       1.17495045677137       1.53018904588107
H         0.57251924896737       0.54165166301651       1.91616418940756
H        -4.03941281741283      -0.58466960598360       0.16468406502075
H        -3.05182483043762      -1.42335459542167      -1.08352633130470
H         2.57944918312233       0.11806780790529       1.00957017392300
H         2.11223822554526      -1.60381782283613       0.73470771567607
H         0.60831149086115       2.97057964342922       1.69577347656545
H         1.63231966856814       2.28904584022100       0.40457337060717
H        -0.02790316526698       2.92269198604219       0.03081169521328
H         4.47508287344070      -1.18083741255920       0.15302289567448
H         3.53118310212429      -1.67032797733527      -1.30391378326721
H         3.98075724328471       0.06657918502118      -1.05287776948134
B         1.66801857928839       2.14215569104696      -4.56203478061719
F         0.75336477995887       2.99502602568302      -3.88814744652024
F         2.67988823832199       2.92502939585617      -5.17900729207545
F         0.97719225271472       1.39470140195410      -5.55260836889758
F         2.26383633308198       1.25286524222289      -3.63013244452339
