29
C9H13F3N2O2 optimized with ForceField in AMS.
N         0.08245185505325      -0.61328026252169      -0.43200910034287
N        -1.99475382817487       0.11335798344912      -0.11607352899648
C         1.46735697788134      -0.68938175651977      -0.89462391956327
C         2.44543963711960      -0.37965766332628       0.24505792697079
C        -0.82759421365136       0.32702819998375      -0.75382532509523
C        -0.53156179474203      -1.44970533593032       0.42949421178280
C        -1.82063343296426      -0.99736105901998       0.62604476241590
C         2.28258330399880       1.04746288825200       0.76575930888169
C        -3.19729322302069       0.93369281700952      -0.18085916727380
H         1.63305363630677       0.02712162572524      -1.72929326468624
H         1.66704750404844      -1.71044795597741      -1.28578676467716
H         2.29381233572269      -1.09788766451455       1.07939685191155
H         3.48379205069678      -0.50529909193113      -0.12833042315530
H        -0.63714023939487       1.15981541231965      -1.41920041275851
H        -0.07394813734428      -2.31678941858598       0.88739422019035
H        -2.57067267886605      -1.43985157820870       1.26845229608577
H         1.28713154740769       1.17628382381415       1.24109851692409
H         2.39003270351287       1.77759618829955      -0.06456425456017
H         3.06400401449181       1.25679253642591       1.52589811959956
H        -3.05124083852200       1.78570018585710      -0.87870278602020
H        -4.05011496268413       0.31892797603066      -0.53737093838142
H        -3.43044605450249       1.33314445368567       0.82862749566287
C         5.23137194584052      -3.80087964020032      -0.36105264599364
O         4.13024267365225      -3.59804230907007       0.12576129057556
O         5.94924975191619      -4.66792563580913       0.11127378801006
C         5.70685173956351      -2.99445993267425      -1.53346202763524
F         6.87007720814899      -2.32819920561503      -1.19459789025401
F         4.75003519545551      -2.06791091677573      -1.90896705473890
F         5.95965362445003      -3.83589765027198      -2.60096339617856
