16
C6H8ClN optimized with ForceField in AMS.
N        -0.68742869117697       0.03841692676967      -0.00412950721697
C         0.02349778209948       1.20693957124403      -0.01003356377420
C        -0.04203229574746      -1.16768640556694      -0.00086765653451
C        -2.15058723180792       0.07781805076880      -0.04089424119390
C         1.42024290101417       1.18614456366890       0.00734480452097
C         1.35381726864168      -1.22399895690730       0.01784859156094
C         2.08654634204767      -0.03814311520666       0.02413356122432
H        -0.48559455443576       2.16338913984422      -0.03044885659652
H        -0.60332741249237      -2.09465099057439      -0.01214169958599
H        -2.58004987762984      -0.79161380464311       0.50072448657178
H        -2.53518030121652       0.99853738419814       0.44930309527264
H        -2.49625780632328       0.05537634737760      -1.09571572924315
H         1.98005415863900       2.11207874927751       0.00488222846291
H         1.86184004822261      -2.17940376523215       0.02461790091967
H         3.16763747085335      -0.06766246133956       0.03753293118956
Cl       -4.34788918978782      -3.07853506227873       1.49690523192242
