40
C12H22F3NO2 optimized with ForceField in AMS.
N        -0.11026690954393       0.02844978230232      -0.06864502751419
C        -1.02413178228093       0.53685061192672      -1.14306737082133
C        -0.62898248602554      -1.29028606841395       0.42228887773486
C         1.22861599300273      -0.19360215292564      -0.71620950753248
C        -2.49739402311544       0.64519501236534      -0.71627616761348
C        -2.10401398895138      -1.26005894577933       0.87184259439232
C        -0.01351252193949       0.99085368927131       1.08383542946386
C        -3.01194530135145      -0.70255100862832      -0.22075688460354
C         2.36739996938656      -0.65015017859339       0.22918991473221
C         0.59650467144829       2.36612891419135       0.75604186066375
C         3.65590166951683      -0.88911528201744      -0.55348850242588
H        -0.99375225447772      -0.14582394624289      -2.02462552690867
H        -0.69077973494939       1.52302733016084      -1.52825549467138
H        -0.03738094259198      -1.65223587034903       1.29071984923494
H        -0.53878654000574      -2.06534775591396      -0.37361455017258
H         1.56300211399809       0.72910091676888      -1.24149374212300
H         1.13660464286042      -0.96063837336274      -1.52031589585025
H        -3.10281509688119       0.95794961036050      -1.59454561464854
H        -2.63556572794262       1.42509023162138       0.06039210895243
H        -2.22209744379739      -0.67004271109565       1.80450699754265
H        -2.42654817278199      -2.29745842174163       1.10790048908578
H        -1.00758527438227       1.18486154109233       1.53068947087632
H         0.57711251483560       0.54564004313253       1.91337890825989
H        -4.04199424969583      -0.58165226544344       0.17893695666961
H        -3.05582825339245      -1.41995760237178      -1.06981677465870
H         2.58155904397679       0.12294594631228       0.99465941142977
H         2.10468918895074      -1.59748073497862       0.74093412416849
H         0.63231813759481       2.97105808545010       1.68655814166495
H         1.63621840532885       2.28199710455728       0.38486705752505
H        -0.02195135717424       2.92757559041277       0.02865740181182
H         4.47258365220114      -1.16760824463059       0.14584447433427
H         3.51749821091201      -1.71381926908025      -1.28441685536965
H         3.95091442872462       0.03220785592114      -1.09707178592700
C         5.47555372587842       3.38178663824482       0.28642987101887
O         6.01582120299394       3.81995833645469       1.28986812978031
O         4.25717199419159       3.35958535156489       0.21872294068731
C         6.29799199199724       2.87087652242098      -0.85985592696957
F         6.04175719944321       1.52690418460214      -1.04969505498162
F         7.64781987423636       3.03707228707787      -0.60440252038316
F         5.96932597690271       3.56263368045621      -2.01095793715443
