45
C11H24F2N2O4S2 optimized with ADF in AMS.
N         1.90293836920609      -0.05976865875618       0.15997369191835
C         2.24887257183903      -0.73247022456329       1.47847520714022
C         2.82950491749307      -0.74587651910779      -0.84268375967231
C         0.45291407858803      -0.27903550577023      -0.23327526693802
C         3.75680378322726      -0.89999873273121       1.43294612422011
C         4.05577215237073      -1.22476323708134      -0.04652256249098
C         2.21965195411255       1.39751355122053       0.22999291636153
C        -0.56588958251446       0.21358722279952       0.77711880385212
C        -1.96489791806536      -0.25047326754345       0.35493564304554
C        -2.99915205941842      -0.05258247424454       1.45949621621765
C        -4.36698704088527      -0.61770843138797       1.08394209691607
C        -5.39996504906477      -0.43580714006266       2.19280679610661
H         1.74773862477362      -1.70780670070829       1.47826463061483
H         1.86921934313202      -0.12216475974703       2.30673257435805
H         3.05093832552213      -0.02700293238644      -1.64273061555833
H         2.27341866722270      -1.59579455535752      -1.26207830641961
H         0.33614708535361      -1.36593589754501      -0.35874343932203
H         0.32677638571695       0.20232541447887      -1.21716138977177
H         4.06331529300618      -1.71494793013912       2.10363460715637
H         4.27391114919986       0.01527140570640       1.76172411279910
H         4.98466781173800      -0.74854996425275      -0.38980708410937
H         4.15196182295901      -2.31176749668053      -0.17846609372099
H         1.62373600770108       1.85635051087743       1.02694006851272
H         3.28811324497437       1.52318899315272       0.43958350881518
H         1.97284176979650       1.85610795785735      -0.73587077298688
H        -0.34911656469246      -0.23039799526453       1.76200931984746
H        -0.55012933145211       1.31255666722777       0.88178470378268
H        -1.92235897972398      -1.32503728518240       0.10950344998097
H        -2.27880000226430       0.28096883054685      -0.56236044710399
H        -3.09122231171139       1.02187768212847       1.71072864749696
H        -2.64259178272435      -0.56951476112559       2.36894691277167
H        -4.72285044015125      -0.13477663565297       0.15492726861034
H        -4.24621173012965      -1.69204417094711       0.86001525205593
H        -5.55383546030242       0.63165619110154       2.42176040145455
H        -6.37355642108705      -0.86512444634225       1.91187476940770
H        -5.06734705563911      -0.93418172593647       3.11748330329182
N        -0.18407729162152      -3.55162835301561       0.15565701015029
S         1.26003622246003      -4.11260535944267      -0.26992285570436
S        -0.77204441626482      -3.83074641039853       1.63309568419813
F         1.04927115387490      -5.72316852310417      -0.42908702354009
F         0.00179740766954      -2.63051047525814       2.53878658795714
O         1.51215262764766      -3.63250537731723      -1.62167891805622
O         2.31282708075902      -3.96818769725500       0.72855869370750
O        -0.35059193518010      -5.05900161581149       2.26897024156006
O        -2.15194626185117      -3.39086233957789       1.64411681888727
