24
C4H12F6NP optimized with ADF in AMS.
N         0.31308677543931      -0.13151880377496       0.21609425680872
C        -0.24686333092223      -1.47951482386051       0.58138600782792
C         0.74076242871530       0.59306484857820       1.46385640413962
C        -0.73659853167353       0.66684092821482      -0.48416547465701
C         1.49673042192621      -0.30699717789341      -0.69541284703099
H         0.52838349006149      -2.04967336131381       1.10825653077354
H        -1.12035016306488      -1.32239728638689       1.22664634326622
H        -0.54117492150043      -1.98877600800991      -0.34462471171633
H         1.11567144988207       1.58201035047312       1.17163313495839
H        -0.13495136866499       0.69306066754005       2.11725903577360
H         1.52741589845310       0.00773010000832       1.95606985660835
H        -0.31622461799130       1.64339475412087      -0.75495399169433
H        -1.04833558252552       0.12640921381646      -1.38645976577327
H        -1.59091164993262       0.79784393043504       0.19177980896670
H         1.88661702207735       0.68813724559663      -0.94318474300727
H         2.25566013517498      -0.90181316091485      -0.17196269066618
H         1.15568219307793      -0.82165369389242      -1.60219901284879
P         3.32736620811411      -2.44125470233358       2.23782613259772
F         4.04119171903681      -1.96774532866273       3.62780222807637
F         3.48679591982483      -0.87359191760572       1.62755162598483
F         4.75898694224095      -2.84406853677025       1.56356089797675
F         2.53987078575055      -2.85136259218224       0.80173264645360
F         3.08988072602578      -3.95623735384825       2.79884075712745
F         1.82499701937473      -1.98032899313401       2.85496150305439
