31
C11H14F3NO2 optimized with ADF in AMS.
N         1.60464997665357       0.38772678827976       0.08207205723926
C        -0.84109832854126       0.01123950102426       0.28561909537501
C         0.40400397714096       0.63046116414110       0.90773490918115
C        -2.06665200041155       0.24841181190307       1.16692574095402
C        -3.34486000134218      -0.32600047208128       0.56229678740301
C         2.13676300175279       1.37039710611784      -0.67667376889857
C         2.20416681176776      -0.82281705974134       0.19031705343518
C         3.27367744100556       1.14917315232625      -1.42092346338746
C         3.34877523268727      -1.09207235506707      -0.55484235650898
C         3.89037151191459      -0.10541565607660      -1.35848446352769
H        -0.68664035596897      -1.07431030729767       0.14871715549013
H        -1.00519998537399       0.44014699496076      -0.72012935362646
H         0.65397701354368       0.20897543560819       1.89574739022284
H         0.29992575299616       1.71917089349681       1.01743814556084
H        -1.88438361520083      -0.19932184605609       2.15984820311337
H        -2.18796875753611       1.33431978174798       1.33137443538083
H        -4.20934854742854      -0.14363752643452       1.21813211964376
H        -3.56037679746202       0.13264150302029      -0.41579713789874
H        -3.25818323345568      -1.41391168696851       0.41395150681402
H         1.62284628611208       2.32829275173949      -0.64501111106750
H         1.69290680923963      -1.57569506842718       0.77768691169524
H         3.68361142140493       1.95791441783841      -2.02410009744221
H         3.81058337380003      -2.07462555892117      -0.46382741622186
H         4.79604087216108      -0.30050757494168      -1.93477944977201
C         3.65122917955431      -0.19073012889503       3.05603149116019
O         4.48996033836846      -0.65550142922957       3.83258262450380
O         2.61708050056860      -0.72541322441110       2.53695536122457
C         3.90314488754305       1.29607181420046       2.61124333650319
F         4.58883936993430       1.33154996684430       1.41097789746712
F         4.62975829079204       2.01484164374786       3.49947152435506
F         2.73694118808032       2.01093613925199       2.39302095102890
