24
C6H15NO2 optimized with ADF in AMS.
N         0.21464066963783       0.23757072031642      -0.12291855280838
C         0.76636299992649      -1.08603101817989       0.33416900284967
C         0.67344519989290       1.29954497833798       0.84073434924213
C        -1.27422817964724       0.19001108722511      -0.16761650179465
C         0.77035348905141       0.54076554360588      -1.48881859323517
H         1.85683319193415      -0.95288043942991       0.44141460758508
H         0.30858169721784      -1.33324212678713       1.30076385515884
H         0.51533088937064      -1.84358334688553      -0.41869723678787
H         0.35957932853542       2.27567099016218       0.44948256750015
H         0.19748831800899       1.10515704140074       1.81130583935289
H         1.78113142444200       1.19206948662853       0.92348871377716
H        -1.64819547658407       1.16237897367455      -0.51345185751920
H        -1.58560004998455      -0.60086954067907      -0.86231163604313
H        -1.65608278517472      -0.02204443547371       0.83946881968088
H         0.46853894651542       1.56143056307469      -1.75902051419776
H         1.88467451573268       0.41635278436579      -1.42910943309648
H         0.33883100638289      -0.18148923741633      -2.19501239234651
C         5.63066435031466       0.22007340508027       0.09209333982605
C         4.10419590256098       0.15743935052021      -0.02247169972292
O         3.44566668245625       0.35566325598237       1.05049341090002
O         3.61798831165240      -0.07144798238991      -1.17130027679592
H         5.96594236470847      -0.20220453242037       1.04991162682381
H         6.11160019985502      -0.29807302838553      -0.74846956703907
H         5.94163330409415       1.27691045707266       0.07081530259037
