35
C11H18BF4N optimized with ADF in AMS.
N         1.93813528841479      -0.43291316299760      -0.29800068761164
C        -1.83598204329742      -0.01488037711827      -0.66624195190646
C        -0.45227995003978       0.14334817823079      -0.04173954744421
C        -2.94932922119422       0.29505981040077       0.33235960549772
C         0.63592416803659      -0.31644084173711      -1.00628436294305
C        -4.33838917820337       0.22644336854591      -0.29684484340239
C        -5.45526288352087       0.50213627166442       0.70561196815065
C         2.39965427619257      -1.65067049059879       0.04759732987387
C         2.56875418178832       0.69632538248305       0.10481288054567
C         3.55372320720671      -1.76975497146733       0.80876405304121
C         3.71700609594518       0.62573363943054       0.86102014150113
C         4.22179370721917      -0.62825265750316       1.21994829862051
H        -1.94680526360259      -1.05908720239054      -1.00839550930948
H        -1.93695250198295       0.63867242403913      -1.55428164287337
H        -0.28295790078125       1.19545919683903       0.25371604552571
H        -0.37903748805280      -0.48429939855691       0.86073985338355
H        -2.88296876866478      -0.42556560838808       1.16833927370018
H        -2.79325412973894       1.30061297641120       0.76780628623592
H         0.78282513984692       0.37270688418465      -1.85337628414699
H         0.39590460991774      -1.31981280664232      -1.38032846145410
H        -4.39511622988177       0.95399620511008      -1.12796383236419
H        -4.48056047928800      -0.77294185728598      -0.74667646256048
H        -5.33646162164962       1.49801113636149       1.16259994631305
H        -6.44436113049253       0.46639861231694       0.22386918968301
H        -5.44567142382310      -0.24268307936421       1.51734187180575
H         1.81619279322532      -2.51096481429194      -0.27578704497172
H         2.10955554680360       1.63434365644444      -0.19978244366125
H         3.87131813382162      -2.77196269626972       1.09483591504879
H         4.20449906734505       1.54775724225646       1.17632669783797
H         5.12389592221926      -0.70134671762825       1.82944589687367
B         0.24112166300665      -3.28387663122862       1.44227182457897
F        -0.73042341702212      -3.87253866061077       2.24309493301075
F         0.69542801800000      -2.04042853938152       2.02016867627013
F        -0.29021494434839      -2.97509154240241       0.13238247558022
F         1.38171109189499      -4.12121728145536       1.25694401767089
