24
C6H15NO2 optimized with ADF in AMS.
N         0.28137156749117       0.02513068607621      -0.30499114458681
C        -0.85987697593150      -0.23780431509845       0.61734361289917
C         1.25878880128039       0.96934621308287       0.34866203965427
C        -0.19123030514269       0.66202856216043      -1.58163013826315
C         0.95889424461951      -1.27479031858336      -0.65990561401687
H        -0.46594209411381      -0.70155410346832       1.53162469049597
H        -1.35132546734443       0.71362268725302       0.86005304691943
H        -1.56886818128524      -0.91726286415848       0.12619702886244
H         2.02547337787116       1.18596924346871      -0.41301575914214
H         0.69176565868837       1.85656895395890       0.66587834614331
H         1.72912244167364       0.45773593764377       1.19636351393807
H         0.71558082173386       0.81495374246415      -2.19188206757552
H        -0.89997253633310      -0.01910235513158      -2.07179746916691
H        -0.68059719661293       1.61484256430762      -1.33738870953823
H         1.72820161176321      -1.02307824681244      -1.40721557028402
H         1.44719713261554      -1.67444086568045       0.23621019983840
H         0.18232839476079      -1.95289983374095      -1.04316752097852
C         5.22773312608790       0.20651946214183      -2.21833042743027
C         3.85941059355938       0.09002678792534      -1.53377179967426
O         2.84957527902979       0.54021180722463      -2.19238833173203
O         3.82921416908105      -0.42039688551238      -0.38220134780910
H         5.78258280676016       1.04343504390486      -1.76384450868447
H         5.81658070629695      -0.70601457525643      -2.04245845778387
H         5.12648025855083       0.39625727403046      -3.29552050118488
