41
C11H22F3NO3S optimized with ForceField in AMS.
N        -0.51258672570357       0.01138552683406      -0.00277713444850
C        -1.43732004998254      -0.55882769298591      -1.03104067390853
C        -1.40867616334836       0.61403115384342       1.03170117455261
C        -2.84157808018716      -0.07005615350273      -0.73060403666091
C        -2.82708325480583       0.15607413845778       0.75464715811752
C         0.33757712243626       1.07420052330075      -0.63214413474320
C         0.30315517211276      -1.08097906168075       0.62185083362869
C         1.35385695043182       1.73602437639106       0.32928859505485
C         1.29493008746339      -1.77382845187506      -0.34326481255773
C         2.06381112681057       2.90502603730004      -0.34809800180079
C         1.96672408411783      -2.96774250419725       0.32962240675221
H        -1.15764682741389      -0.28726340205124      -2.07485308778319
H        -1.47111004943564      -1.67225618657607      -0.99780218841683
H        -1.12101772470230       0.34698659776232       2.07453151836755
H        -1.41662868532657       1.72749793934470       0.98627544106875
H        -3.02878798172326       0.89134414984721      -1.25841512356381
H        -3.61374467352047      -0.81394477628383      -1.02479747657941
H        -3.02237441687794      -0.80085180154839       1.28540739226480
H        -3.57853116466124       0.91600086272931       1.06188917179351
H         0.89558350059875       0.66445079762172      -1.50280374297639
H        -0.31785762253450       1.87158094062125      -1.05449011421880
H         0.87755225211540      -0.69197557245766       1.49142909892844
H        -0.37752826094612      -1.85690004353455       1.04440370028233
H         0.84895410343539       2.11420763106243       1.24221954446072
H         2.12865952539785       1.00504559795713       0.63933871176424
H         2.09363740962785      -1.06841601224896      -0.65199928059831
H         0.77635586903299      -2.13176514861136      -1.25664676004974
H         2.62299292509386       2.55052914535976      -1.24018545466441
H         1.32861136132680       3.67748231605224      -0.65903770461227
H         2.78302565270759       3.36604574368277       0.36146682192139
H         2.53787201758457      -2.63475950144442       1.22246405125156
H         1.20692734807132      -3.71685839747728       0.63847496658573
H         2.67025968697626      -3.44936704541173      -0.38198915834221
S        -4.56415547444078      -5.29935918086847       1.64721869156939
O        -4.85037951677289      -6.44928239298576       0.67022083130104
O        -3.09528086738809      -5.52547260067088       2.03467148490984
O        -5.32843449518716      -5.71583297527874       2.91264971016569
C        -4.95042490230921      -3.64226893051743       1.02408817939886
F        -6.28634496360714      -3.58050477350330       0.67771422476788
F        -4.17257345258974      -3.37609700081859      -0.08615474797842
F        -4.68665197587686      -2.71029127553758       2.00856710339583
