38
C12H23ClN2 optimized with ADF in AMS.
N         0.23232719497238       2.25796487700805      -0.30822584606844
N        -1.71590292842604       1.35240533719832      -0.53647049005694
C         1.66989563099106       2.49532747882271      -0.48937432271515
C         2.50707432800582       1.43213760610130       0.22105597248331
C        -2.75691954867068       0.44034800619902      -1.03808155047315
C         2.23047681058759       0.01943246149595      -0.28591644133204
C        -2.98163895293302      -0.71773066373079      -0.06851169387945
C        -0.50098619112533       1.45398356006427      -1.09861660362193
C        -0.52699128875675       2.66378266985958       0.77529810961051
C        -1.75889707398909       2.09377912219086       0.62724069617435
C         3.14923536905936      -1.03618842032823       0.32271228634011
C        -1.71109195713256      -1.52999870015003       0.18583164301053
C         2.78240800913198      -2.43949693687930      -0.15711333209900
C        -1.97807237483366      -2.77230453497454       1.03108832672780
H         1.88578918232976       3.50877203033339      -0.11699181497285
H         1.85717318365995       2.47794503238632      -1.57329266824939
H         3.56842072865274       1.69464791042382       0.05980549917132
H         2.32799490666310       1.49080159630402       1.31123468704376
H        -3.67180082127917       1.03027554073600      -1.20589747076038
H        -2.36967061823677       0.06026888313506      -2.00120890887580
H         2.30406730319741      -0.01462830293076      -1.38884420108470
H         1.18678592555851      -0.26176678096266      -0.06533185395832
H        -3.75421760787366      -1.36421756246233      -0.52247378154594
H        -3.40431383959011      -0.34937573334299       0.88617947124993
H        -0.19150771051042       0.79924707316539      -1.98728539624330
H        -0.13876327707027       3.32820946126676       1.53826042470840
H        -2.65151211034238       2.16440936685041       1.23664944964882
H         3.08933610679420      -0.98659476952778       1.42652624839212
H         4.19859948525656      -0.80907535902718       0.05729025466855
H        -1.25998011214926      -1.79900183512156      -0.78685490877538
H        -0.97077451446774      -0.89139649444230       0.70087774908509
H         2.82300216872874      -2.49770716242215      -1.25615581467656
H         1.75107553980999      -2.69209036019914       0.13731447294606
H         3.45725981773163      -3.20240035236885       0.26003645979120
H        -2.37997803883894      -2.50712160943071       2.02340262001357
H        -1.05661159471063      -3.35386433432298       1.18454817177369
H        -2.70962988982668      -3.43323244742972       0.53827148472920
Cl       -0.11108646546759      -0.75633298378726      -3.11751485957961
