26
C8H11F3N2O2 optimized with ForceField in AMS.
N        -0.49582396114367       0.13809146363057      -0.33651836805839
N         1.70120917791325      -0.05117654199272      -0.05863702821503
C        -1.89002594654310      -0.20019338907631      -0.60888915522378
C         0.56289231140836      -0.69408105107375      -0.38360240246729
C        -0.01008922730706       1.34373417707061       0.02434847210887
C         1.35409893194626       1.22552020443256       0.19656449920427
C        -2.67870550155927      -0.28264880968153       0.69278014270067
C         3.03981953627469      -0.62025487819906       0.02654032998266
H        -2.33674087403699       0.56893769518081      -1.27521752413310
H        -1.94911314368858      -1.18164619605703      -1.12835223064383
H         0.50346324216498      -1.74632571388124      -0.63496915106634
H        -0.60121388119156       2.24090027752200       0.15270289015974
H         2.03869854853925       2.01071425992536       0.49075505914683
H        -2.24422380174124      -1.06578438826662       1.34990682585425
H        -3.73559689553530      -0.54295774884675       0.47388569837836
H        -2.65123579984461       0.69211435872956       1.22296815543534
H         3.02029573493399      -1.70150261844176      -0.22816777819854
H         3.71429902379196      -0.09569861424125      -0.68221714298651
H         3.42946884411381      -0.50253329237696       1.05961313449578
C        -4.10964501741553       3.81176565207973       0.67021701017545
O        -4.36429221579846       5.00008366578115       0.55285581908619
O        -3.00060890711456       3.46816890374385       1.04574849336254
C        -5.14919731314640       2.77560009059750       0.35793627632469
F        -4.69466177314820       1.95542371107415      -0.65746093974176
F        -6.32996882529441       3.37509780831820      -0.04470831653586
F        -5.39404820947757       2.01198102154894       1.48424111085476
