20
C6H11ClN2 optimized with ForceField in AMS.
N        -0.52309278947317       0.14636247261088      -0.35728659024443
N         1.66669799849688      -0.08421335047948      -0.05224358202877
C        -1.91847380228574      -0.16199320281747      -0.65963002521978
C         0.52158421428631      -0.70374983628824      -0.39898824822884
C        -0.02132672188122       1.33926773513260       0.02242802676671
C         1.33861347005598       1.19608925342793       0.21103548017622
C        -2.74003313937525      -0.21666967105546       0.62333959388275
C         2.99457569958594      -0.67716236302077       0.04082741161793
H        -2.33260811680994       0.61296617988336      -1.34045498319194
H        -1.98882795811336      -1.14511575253352      -1.17399675737658
H         0.44779627415936      -1.75193413136489      -0.66408472053087
H        -0.60047778380301       2.24406631314981       0.15225522827414
H         2.03387373474304       1.96654976645957       0.52000277676110
H        -2.34064411049282      -1.00683022673555       1.29451836646617
H        -3.79728899148958      -0.45324560059230       0.38030002699181
H        -2.70234094901930       0.76159066758359       1.14756389429741
H         2.95624166553529      -1.75898286360477      -0.20923414149041
H         3.68155200094458      -0.16854950206794      -0.66755929132741
H         3.38257332247924      -0.56260289443249       1.07485414105635
Cl       -0.83316753384324       5.23293626894512       0.59055186534845
