41
C11H21F6N2P optimized with ForceField in AMS.
N        -1.28061431546386       1.30119994331190      -0.23365060729265
N        -2.67661832556448      -0.39157245955207       0.12565363953820
C         1.10434788556000       1.93840968693480      -0.21998435554840
C         1.59096117469019       0.49240256535195      -0.39316351656765
C        -0.27148854716926       2.15131833422109      -0.86308189731661
C         3.00939755654593       0.31067829836178       0.15528973327022
C         3.45008074762787      -1.15385160706167       0.04562115820933
C        -1.81401851372980       0.17280150324824      -0.74112900131101
C        -1.81828776059287       1.45210960543095       0.99382697822657
C        -2.68682135769860       0.40266742367663       1.21580177426686
C        -3.39068979350500      -1.65382723328262      -0.04726718524522
C         4.84457018182849      -1.35795287489850       0.62862792243774
C        -4.85597426200725      -1.39314692274011      -0.37140716581480
H         1.82787854680917       2.63223216320790      -0.70120536723804
H         1.05131965142417       2.19077102113709       0.86159026526420
H         1.57820901451821       0.22350482464374      -1.47232478610300
H         0.90436421265454      -0.19311637301699       0.15010527086671
H        -0.57149551410134       3.21638058114550      -0.75854910676261
H        -0.20942872661241       1.92772491049621      -1.95097128972350
H         3.03518874485898       0.62629775497281       1.22025246898849
H         3.71212805025156       0.95298130719906      -0.41929659767733
H         3.45621382771092      -1.46239830173175      -1.02280240990607
H         2.73466472316904      -1.80452918860831       0.59461815013592
H        -1.55772466911225      -0.24316058638484      -1.70772961400251
H        -1.58440686505754       2.25334682471804       1.68253083839837
H        -3.26254051677716       0.22075178408587       2.11395096584778
H        -2.93503584019934      -2.23777479166260      -0.87672831702102
H        -3.31026257653484      -2.25910144286291       0.88153661908420
H         4.85073317377089      -1.10290044925309       1.70993798031485
H         5.58312143299971      -0.72182708216755       0.09596497153263
H         5.14309104608433      -2.42133162297771       0.51335213997219
H        -5.34064017493888      -0.83555838285951       0.45736728251554
H        -5.38417201047689      -2.35993592927812      -0.51250795864500
H        -4.93693893538388      -0.80028801839964      -1.30706604569747
P         2.66873794454370       0.19754187906087       5.39560323617605
F         2.55590897713248       0.37385369381217       7.10044845377726
F         3.64064661144296      -1.20002325017137       5.62498452015405
F         1.23200976182476      -0.74354789533343       5.41724825542994
F         2.77269259708616      -0.05480999831737       3.70118286538065
F         1.73102737690690       1.61566508790340       5.14962845386719
F         4.07973063838469       1.17661116614017       5.35850921371793
