65
C19H25F18N2P optimized with DFTB in AMS.
N         1.33160578589804       2.28260099764779      -0.35159664100544
N        -0.80925315742174       2.49232205609979      -0.33853625306095
C         2.68592877763556       1.94485247980268      -0.78297368233777
C        -2.20445858332227       2.45114032553958      -0.77152732921844
C         3.04173720185935       0.52734933261856      -0.32477859111490
C        -2.60426041666630       1.02314799390197      -1.14941018630163
C         2.05808945295459      -0.50756425757549      -0.87595963205960
C        -2.36890936969174       0.01899450428693      -0.01892034496454
C         0.24249636493295       2.22240028071301      -1.11234154655349
C         0.97082282372534       2.58086397614201       0.93377298095705
C        -0.38196436991164       2.71290554759937       0.94223547509788
C         2.52876157883994      -1.94034407465889      -0.61404670575703
C        -2.66909731892423      -1.40627468555584      -0.49525321298437
C         1.57697757903574      -2.94325185778185      -1.26328788604505
C        -2.38811648805945      -2.42844416596322       0.60354928141044
H         3.37115548414314       2.67728233595064      -0.34912814074500
H         2.71570249047874       2.01665842419693      -1.87137479470149
H        -2.31275078890614       3.11381223193320      -1.63459111518233
H        -2.81459529896402       2.83110416418181       0.05166980135710
H         3.06472447772492       0.48944640557790       0.76912712407322
H         4.04810929021818       0.31408558494888      -0.69528068666917
H        -3.66227371512039       1.03641605998805      -1.42478070989049
H        -2.03379855097934       0.71919546983674      -2.02800330511172
H         1.95612605392907      -0.35913698766749      -1.95228613410585
H         1.07211836114726      -0.35655563250560      -0.42201911357097
H        -3.00159357034574       0.26975078216213       0.83986419189202
H        -1.32448964190168       0.07533144126394       0.30767511795041
H         0.21694367947688       2.00590265537422      -2.16733147247817
H         1.69410494231908       2.67798839864418       1.72429054578349
H        -1.06412668738838       2.94648228475631       1.74072952155847
H         2.58397420504740      -2.12186545399217       0.46520340000723
H         3.53298400653701      -2.07271054210162      -1.02961619721245
H        -3.71760249514240      -1.47454151000952      -0.80202003816101
H        -2.04837550550018      -1.62944797050900      -1.36860204517724
H         1.53344496450136      -2.77775901670111      -2.33998987625978
H         0.57085242603868      -2.83557743512070      -0.85472355424803
H         1.92099877035934      -3.96089593186110      -1.07833667545541
H        -3.00924900476176      -2.23323785591975       1.47909727752832
H        -1.34022480376965      -2.38670321800564       0.90470421512759
H        -2.60457680555443      -3.43283070671296       0.24022701617197
P         1.38872241893673       0.47951853625203      -5.02497113574016
F         1.52560868461952       1.42746956209393      -3.59108574933478
F         0.80085363375664       1.78449780880438      -5.88256530137620
F         1.97763512478734      -0.83669667732804      -4.14212036151090
C         3.20907405053770       1.13979331899168      -5.34086248107250
C        -0.44451230213339       0.19546929600247      -4.26009933723898
C         1.10575571044321      -0.73415425230241      -6.57787743695039
C         4.36730768866449       0.50772742779665      -4.52560522043654
C        -1.70148218657645      -0.47534233318980      -4.88345818702038
C         2.07586704835016      -1.01630531351296      -7.75788775389911
F         3.23691957076288       2.45574656995369      -5.05612098071840
F         3.53730674054935       1.02039230197160      -6.63803359827677
F        -0.90037233544181       1.44133983462829      -3.94926439910548
F        -0.27726045002194      -0.42605732272732      -3.06728848487871
F        -0.04280793942489      -0.31249614469719      -7.14713016895108
F         0.85248428939768      -1.94689189988371      -6.04281452467171
F         5.51532092827142       1.13677656068602      -4.77759237883489
F         4.53284221885581      -0.77732074588702      -4.80766789931283
F         4.13732578890209       0.62013407803080      -3.20814429705406
F        -2.66012123918991      -0.48921011936331      -3.93506467947003
F        -2.17703056827284       0.22452722397005      -5.90357577782154
F        -1.51401882337851      -1.72879455384295      -5.26096588463761
F         2.22275652674310       0.04456135681789      -8.54178609467871
F         1.58157093090408      -2.00533266841442      -8.50386837782305
F         3.27099488168646      -1.40302363607501      -7.31714030922807
