34
C10H22ClN optimized with DFTB in AMS.
N        -0.05440286843841       0.05582872032704      -0.05774203207688
C        -1.03312606797105       0.48454372353535      -1.11056031241717
C        -0.51879874243063      -1.24702828340673       0.53612603616981
C         1.25736259346371      -0.17896427024052      -0.76349925094645
C        -2.46239723725051       0.60060249719715      -0.59203560810805
C        -1.93736285793158      -1.17780304946035       1.08139150326763
C         0.08399719949861       1.08470263262198       1.03284457830182
C        -2.92692153673464      -0.72433721831909       0.01083690332823
C         2.42602197411851      -0.59573821820850       0.12932305568527
C         0.69034291157356       2.40681368032737       0.59424331327204
C         3.68099829897539      -0.74203163971354      -0.72813920453457
H        -0.99263434973061      -0.26646849312449      -1.90493456611432
H        -0.69298668680044       1.43833371257070      -1.51874847926907
H         0.17017880296186      -1.49508626559914       1.35275030807536
H        -0.45241772957157      -1.99919547888185      -0.25474496882518
H         1.50216266986390       0.74420403984534      -1.29570905650983
H         1.06984046132322      -0.95736947871318      -1.50888820772699
H        -3.09695978993652       0.87016491053722      -1.44075041137197
H        -2.54087409547644       1.40152150512956       0.14737136475384
H        -1.98075504993369      -0.51107676352664       1.94584255083999
H        -2.19823692994566      -2.18099431801074       1.42732523330843
H        -0.91207904859347       1.26047787873539       1.43968483301957
H         0.69270014529194       0.61939714173878       1.81880271283412
H        -3.92081590398765      -0.60173904770448       0.44717731553035
H        -2.99153375974376      -1.48101939698116      -0.77818738781611
H         2.60425476300694       0.14802160322496       0.90690158799609
H         2.21080561740300      -1.54328165835037       0.62487601810807
H         0.68999401171114       3.06248078031208       1.46490888227707
H         1.72026585422822       2.29384563266089       0.26108896708311
H         0.11243230234382       2.88900782329223      -0.19412616455910
H         4.50832572930066      -1.07244316107941      -0.10180201426437
H         3.52712716448391      -1.47840131592109      -1.51838958263626
H         3.95062912140440       0.21062873612546      -1.18649360741079
Cl        1.31717723582384      -0.99167960194021       3.14464442603629
