47
C13H26F3NO3S optimized with ADF in AMS.
N         1.32442370336388      -0.76667911629169      -0.21958784458474
C         2.35011484424556      -0.67970039912704      -1.36794035521071
C         1.85343348406083      -1.86964932410739       0.71284676241288
C         1.27027731304489       0.54868673591967       0.54094046930056
C        -0.02198764390340      -1.15586868831787      -0.78631279736882
C         3.18731392981523      -1.94224006144170      -1.26454652693582
C         3.26988314197086      -2.16124145952279       0.24552659796249
C         0.81609155445642       1.73044142628896      -0.29295525127100
C        -1.14081830633862      -1.27648091065518       0.23564948515125
C         0.97143725168144       3.02010096017166       0.51860747029360
C        -2.39613864767303      -1.88241466786410      -0.40035649409327
C         0.52675216016821       4.24781282735898      -0.27017244496722
C        -3.55550792436901      -1.97789643037871       0.58844050353974
H         2.96600184667527       0.21363979355237      -1.18599590527436
H         1.80262914554260      -0.56167011797417      -2.31181470584792
H         1.19644068548139      -2.74110500084655       0.57885567848712
H         1.78495612213954      -1.51121123336751       1.74777809293698
H         0.59969057963113       0.38385366424475       1.39783629988572
H         2.29434475073421       0.70841094398799       0.92140495202644
H        -0.27636676595080      -0.40177758222029      -1.54488624942163
H         0.14090335555134      -2.11488375661750      -1.30518832534865
H         2.69885078987813      -2.79424167912345      -1.76972668915862
H         4.17933554081932      -1.77225423309044      -1.70849351215753
H         3.97612615322810      -1.44355614877068       0.69173976148214
H         3.57285860446471      -3.18261843984644       0.51953381191004
H         1.44221306831947       1.81775425140291      -1.19657326991412
H        -0.23699031598042       1.61642862462912      -0.60989329840923
H        -0.82775023227020      -1.90675310481778       1.08607847774174
H        -1.38715566517190      -0.28160320156898       0.64309937754877
H         2.03390804706304       3.11789020612374       0.79792904205474
H         0.38644347924174       2.94130472445974       1.45355739205036
H        -2.69828629905351      -1.27116654125235      -1.27002994726745
H        -2.15673226762686      -2.88763082931332      -0.79185524696207
H        -0.53428742044465       4.17624948457963      -0.56058727471341
H         1.12735995501710       4.35638063487180      -1.18695412456035
H         0.65306844302032       5.16634651160784       0.32256849667580
H        -3.83513189803713      -0.98189876449105       0.96570679579952
H        -3.28528648784578      -2.60294196628319       1.45422378073933
H        -4.44644852189897      -2.42160449050737       0.11880669346417
S         4.99280478317114       1.18715743448486       0.21842679930289
O         5.68269568108726       0.14657042793656      -0.56062195486497
O         4.39202265535484       0.71799194753499       1.49044143876866
O         4.09968095434199       2.06977974966203      -0.56666113102388
C         6.37021128343284       2.33533218493618       0.77801950269014
F         6.96952496210108       2.93145101961782      -0.28565580881936
F         7.32119333731398       1.65290000829818       1.46759620850678
F         5.88680672494640       3.31530753372776       1.58974763494328
