51
C13H24F6N2O4S2 optimized with DFTB in AMS.
N         0.02937419186108       0.88985132520728      -0.31548822187216
C        -0.51378785121140       2.29093937907076      -0.20417248761659
C        -0.91120940474341       0.07724585254692      -1.15599026748742
C         0.19519219018402       0.30171062025294       1.05905432621893
C         1.34308448499843       0.93934694279733      -1.05295828899869
C        -1.93715133016381       2.34034497418959       0.33478890675135
C        -2.33688673807621       0.06732254949394      -0.61615659976913
C        -2.88214774449882       1.49017924691351      -0.50896188760877
C         0.82801406304331      -1.08422360444222       1.12568790437943
C         2.47493051574352       1.66157455969498      -0.32276885531615
C         0.87075594898159      -1.51256299536243       2.59435476251045
C         3.69966509019234       1.72797759990439      -1.23376734612117
H         0.14724359257758       2.85402941772371       0.45559534703081
H        -0.47436234062054       2.72400050201995      -1.20790864882743
H        -0.89869100959383       0.51627198338197      -2.15802084495447
H        -0.51325774222998      -0.93747517789907      -1.21654176793079
H         0.79756181644566       1.01058510287832       1.62743185225000
H        -0.79213472309945       0.26777341975238       1.51868974620544
H         1.63147375256177      -0.09408711298600      -1.26164633308338
H         1.14321360358722       1.43558296151662      -2.00696257536848
H        -1.96230686533616       2.01487578975358       1.37636752965452
H        -2.25224697367105       3.38648957947099       0.30929690860064
H        -2.94470865758593      -0.51654916330036      -1.31257411865483
H        -2.37783448133897      -0.42801785473524       0.35669769212481
H        -3.87190360411875       1.46993296204459      -0.04767975866027
H        -2.98017523456798       1.92149316803429      -1.51096825503993
H         0.24443463409309      -1.80963945976042       0.55114075426565
H         1.84481735640397      -1.06968806152577       0.72472262163601
H         2.17615064486663       2.67524687049502      -0.05017089788632
H         2.73995642438309       1.12766007541143       0.59096080722754
H         1.33571823799640      -2.49402927062955       2.67845746951987
H        -0.13749460429066      -1.56303479111117       3.00502389452254
H         1.44545996317223      -0.79731136959677       3.18211387656543
H         4.51030054191643       2.23313464879043      -0.71039743989909
H         3.47358916406412       2.28317722817494      -2.14476704016826
H         4.03257480106528       0.72591893193071      -1.50754764522480
N         0.02265475029809       2.75895696677046       2.81329876778281
S         1.30865799379255       3.69826253416445       3.00617024406083
S        -0.51997670920951       1.88395386786237       4.04644733460963
C         2.79432144751301       2.64404821701607       3.47210161226992
C        -1.29104760480054       3.01869994890211       5.32111966414532
O         1.63522288300544       4.13970674141728       1.66535302111852
O         1.19727393171063       4.68313537728504       4.04802407895454
O         0.50223332866933       1.13801805492665       4.74229749345279
O        -1.63829811493882       1.13880445142860       3.50255104751347
F         3.88274018486101       3.20788960105027       2.97034244568377
F         2.67214658006904       1.43333488777187       2.91626452738226
F         2.93559282216820       2.51330394702717       4.77043034475356
F        -2.21514350240871       2.34256223174194       5.98367821310811
F        -1.86457269490107       4.04319439752721       4.71193635837609
F        -0.38508272011945       3.45704801400698       6.16851259461308
