37
C11H24ClN optimized with DFTB in AMS.
N        -0.75858714911171      -0.27309476147365       0.20598669384421
C        -1.07701864440756      -1.40413969427591      -0.73304045485316
C        -1.86049408498065      -0.32375568134535       1.23567876669995
C         0.56429579481247      -0.50058380857715       0.87715672690794
C        -2.59322549497344      -1.41734508784436      -0.82274362826742
C        -3.03727245078836      -1.06625830262776       0.59869635618317
C        -0.80785088080990       1.01915333911533      -0.55225396988029
C         1.74798583116274      -0.53390345895163      -0.08359900768842
C        -0.36675333439450       2.24687880441705       0.24508840960890
C         3.01739023478614      -0.89698710953550       0.69734340765658
C        -0.67345037443266       3.51255633597762      -0.55517076061844
C         4.23534422204020      -0.94556885564948      -0.22197817784614
H        -0.57719319739731      -1.24817149387440      -1.68850916389366
H        -0.72679928809879      -2.32305357852971      -0.25261718924763
H        -1.48447270600612      -0.88682315990534       2.09129185355971
H        -2.11163958788155       0.69052844541020       1.54466337596598
H         0.47232862045466      -1.46563408530897       1.38970830757793
H         0.69240622345765       0.28360022641546       1.62642912720816
H        -2.95743960638073      -0.68362732548882      -1.54759247462010
H        -2.94702205444358      -2.40442966940358      -1.12252504771196
H        -3.22120517996713      -1.98077272446411       1.16663210833462
H        -3.94293911119718      -0.45763070307807       0.60014782686420
H        -0.17280070048390       0.90822722299860      -1.43476274569917
H        -1.83999328670550       1.14863149450976      -0.88741665344298
H         1.57948725232171      -1.28360810933782      -0.86121833819663
H         1.88708490625762       0.43586863813454      -0.57188053419672
H        -0.88778422528830       2.29289311326491       1.20465154253841
H         0.70664078464147       2.20335088870557       0.44471267601285
H         3.18270112983504      -0.15587306867811       1.48635916368427
H         2.87964120866350      -1.87169360343262       1.17458231987545
H        -0.15461470009005       3.49433593514927      -1.51411306471202
H        -1.74463824202647       3.60065135417625      -0.73922606689464
H        -0.34293762871347       4.38789794151984       0.00270842496728
H         5.12328104593972      -1.20661458599959       0.35342502005164
H         4.09492719274647      -1.69380200866099      -1.00297076382521
H         4.39932605396961       0.02414824869775      -0.69454686712017
Cl       -0.84402904021012      -3.23380575354923       1.87311885627350
