41
C11H22F3NO3S optimized with ADF in AMS.
N        -0.95186327902948       0.05884317461399       0.27187726298923
C        -2.00617133088582      -0.46501512661617      -0.69620443039398
C        -1.79467945866012       0.85061583183545       1.25597035296786
C        -3.04646728008685       0.65323126904043      -0.82079612186003
C        -2.82719630718735       1.57573082991333       0.40425818580485
C         0.00967628103489       0.95010823682840      -0.47878281457579
C        -0.25490374024004      -1.07428779400154       0.99092821799781
C         1.14314118597226       1.52961428326326       0.35131428078834
C         0.55446932476897      -1.99227899524464       0.09005987543332
C         1.96725750077311       2.50324871083294      -0.49179567878985
C         0.90518477188796      -3.26358069410668       0.86716175604451
H        -1.51384501834069      -0.73221290666696      -1.63927885371812
H        -2.43105588078036      -1.36061767721120      -0.21859878119955
H        -2.30266110944869       0.10088911448241       1.87951648417596
H        -1.14395195633216       1.48926805689358       1.86549697853040
H        -2.93901375780576       1.21039720817892      -1.76331641572619
H        -4.04779815368334       0.20154256582383      -0.79568226083574
H        -3.75076113957152       1.69884623543699       0.98673412847339
H        -2.48121857826797       2.57539013136875       0.09856628153844
H         0.41411268095370       0.34222882380133      -1.30231872007824
H        -0.59612646268699       1.75395858991210      -0.92450475964035
H         0.36448149957043      -0.62101808577799       1.77925467766293
H        -1.06518384741828      -1.65615923085647       1.45667515437886
H         0.74761113976116       2.05580337233677       1.23506307632206
H         1.79345535519810       0.71932101026836       0.71811807357044
H         1.47270622955997      -1.49912657460957      -0.27456312187116
H        -0.04684189205657      -2.27410044871149      -0.79007104195796
H         2.37802161715505       2.00702236154690      -1.38476253733689
H         1.35619736784658       3.35549638781528      -0.82711943113229
H         2.81144129235215       2.90130071932716       0.08911572442833
H         1.48905687372675      -3.02830360968189       1.77052039133681
H        -0.01721092769462      -3.77735251814525       1.17680797658712
H         1.49854330761972      -3.95081048469411       0.24685559036157
S        -3.81507697145418      -2.51794290984615       1.99238214323708
O        -2.61570961988777      -3.02395948172875       1.27420288301260
O        -4.95955752467079      -3.42051123701243       2.05476601626899
O        -4.10691071841936      -1.09482506678714       1.69203303608723
C        -3.20187509277016      -2.43072471411746       3.76780170927147
F        -2.12410766191866      -1.57565961000216       3.86964907816682
F        -2.79286251771906      -3.64403372931986       4.21601655622424
F        -4.15837806076423      -1.96856536178221       4.61078493135547
