31
C11H14F3NO2 optimized with ForceField in AMS.
N         1.08132793604534      -0.01241895845592       0.46366762736077
C        -1.30369760542567       0.00028301473011      -0.11120706005800
C        -0.27528284979899      -0.02437295058517       1.02376286644923
C        -2.73743178991474      -0.01446308493359       0.42805166468313
C        -3.74861719224254       0.00806993129967      -0.71482892039950
C         1.68596651768682       1.18095012899031       0.17647574838387
C         1.70543956193242      -1.19423863216958       0.17080339791205
C         2.94433504670090       1.21060509989892      -0.42962565817420
C         2.96480311809668      -1.20012974229379      -0.43392213277166
C         3.58232474332055       0.01117668605379      -0.74107222110850
H        -1.14503071892158      -0.88724591130723      -0.76254736757986
H        -1.14833004942234       0.91700430895860      -0.72160769581386
H        -0.42660990824459      -0.93234907959880       1.64985403992069
H        -0.42432303263054       0.85521465690964       1.68970180733338
H        -2.90104811867169      -0.93086819081229       1.03600292631337
H        -2.90472573546704       0.87406586736308       1.07509732142109
H        -4.77861643959646      -0.00200840990759      -0.30202177379326
H        -3.61875873859266       0.92692251466893      -1.32613417228037
H        -3.61626130207668      -0.88416615367979      -1.36392534250674
H         1.18862956095875       2.11744825890553       0.40016648682328
H         1.22310823723330      -2.13994497731568       0.38792737582353
H         3.41618042626755       2.15633392241973      -0.66205420056528
H         3.45215347424325      -2.13697318624190      -0.67119679885628
H         4.55405890151896       0.02025695489883      -1.21798856734376
C         6.05195371954482       1.13545242560627       3.83326820776964
O         6.52624365523511       2.18144914191853       4.24752325416646
O         6.40229299133868       0.07701183334201       4.33005147765853
C         5.04715909723542       1.14195260658285       2.71924554329033
F         5.52717743680555       0.38885870334189       1.66437156183546
F         4.81201749127165       2.43368435638653       2.28088925817533
F         3.85810317976974       0.59474983662610       3.16484742553114
