34
C12H16F3NO2 optimized with ADF in AMS.
N         0.81928700233705       0.21340031119899       0.48649960117531
C        -1.56124950862114      -0.45271099883213       0.11253314891140
C        -2.79141031813539      -0.13665060843735      -0.73715020150019
C        -0.30273389351125       0.17653755202804      -0.47937463998559
C        -4.05765494060924      -0.79630010410286      -0.19012913128871
C        -5.30243358145108      -0.45546932416388      -1.00591105997645
C         1.21123766117297      -0.92905185053436       1.10737880970182
C         1.31186842994464       1.41911164691098       0.86992053936560
C         2.20610131208569      -0.91411995152822       2.05106848024922
C         2.37151339873741       1.46742720717622       1.78409807909094
C         2.80857555634852       0.30951245591705       2.38588505281126
H        -1.44125851807581      -1.54762775547811       0.18718641701084
H        -1.69177886967951      -0.07345083255519       1.13769419768742
H        -2.62825702790576      -0.46419033351942      -1.78181044776049
H        -2.93594042679880       0.95906222920813      -0.76432738771297
H         0.03940208984553      -0.35424325293692      -1.38355366238626
H        -0.50455467107373       1.22318251998018      -0.74441449958972
H        -4.19968906936203      -0.47955461385154       0.85819806323255
H        -3.91454822704035      -1.89203751303950      -0.16955411550550
H        -5.48857059029196       0.63049775672049      -1.00486187610838
H        -6.19662829920426      -0.94897786713143      -0.59545850491136
H        -5.19117639986997      -0.77693351520275      -2.05413297027646
H         0.70346189634762      -1.83927218851074       0.79988811796530
H         1.03102507562028       2.27025979977205       0.26115399217805
H         2.50835802823971      -1.84665807223494       2.52431321229407
H         2.79616761245935       2.43983488202353       2.03006140093920
H         3.61149357718300       0.34121417329477       3.12384206415592
C        -0.80082931207190       1.60511698438540       2.92417809562127
O        -0.39896327760544       2.39540937772051       2.00906930825333
O        -0.44122819376610       0.45227499421352       3.20931333553676
C        -1.94261222010075       2.24121637919117       3.79080118371714
F        -2.54110873696793       1.33837954156847       4.61311955678477
F        -2.92983764228313       2.78445944949470       3.00939856559073
F        -1.45312760209623       3.24857617515513       4.58026623082917
