43
C13H24F3NO2 optimized with ForceField in AMS.
N        -0.84028936237768      -0.20575416393608       0.02536040082614
C        -1.17664887276466      -1.24316094559601      -0.99841168545382
C        -1.97377895549788      -0.24217657347095       0.99988446667591
C         0.43178989595253      -0.56903348508043       0.73179675105020
C        -2.59928714880796      -1.71000893740110      -0.75539222624679
C        -2.80574384420317      -1.47668390179989       0.71403387214890
C        -0.76740677257395       1.13928404064623      -0.63412109228315
C         1.69636976376867      -0.53896232540872      -0.15975519787274
C        -0.40794274966043       2.30411452744013       0.31868572277638
C         2.91010086904682      -1.07480440502166       0.60926409097926
C        -0.49527175693267       3.64504224080584      -0.40517384705167
C         4.17522022572263      -1.01752920778691      -0.23988533151662
H        -1.07723453464770      -0.87727521571750      -2.04593392202890
H        -0.52499780956016      -2.14334710857494      -0.91806916655743
H        -1.64174301627031      -0.25126886393528       2.06321919178986
H        -2.65222428104467       0.63517741034974       0.89006986031986
H         0.33375454060983      -1.59020753197814       1.16910525711504
H         0.60279066969861       0.10574624363518       1.59968800252460
H        -3.30796549737705      -1.08298104101272      -1.34077885151943
H        -2.73627353155473      -2.78100689701009      -1.02096918253220
H        -2.41160974360741      -2.34084454196269       1.29371996133616
H        -3.87968231199175      -1.31928797054705       0.95515663998819
H        -0.02869780955225       1.12658905469081      -1.46586399509623
H        -1.74662751360734       1.36930375873885      -1.11581434420489
H         1.54859699486921      -1.15328459626219      -1.07288281683506
H         1.91746439347516       0.50306609217839      -0.47195113463421
H        -1.09453257386765       2.33080678170945       1.19044561689413
H         0.62960584897129       2.19336251311000       0.69584067635942
H         3.06851054374363      -0.46724601740412       1.52723076399529
H         2.72899259088400      -2.12966859757925       0.91115487850546
H         0.21612956210813       3.66754249286951      -1.25846935457291
H        -1.52645978857259       3.81586572182766      -0.78157976245606
H        -0.23380843391322       4.46510377662807       0.29652117710729
H         5.03235469873118      -1.38795426374041       0.35809582210145
H         4.06593385479507      -1.65742257736900      -1.14149626027349
H         4.38701430473706       0.02773063145511      -0.55103081176768
C         9.15990146481939      -4.00092572182524       0.86801468323717
O         9.59394247226611      -4.84690971047261       0.10244671733792
O         9.93466012169670      -3.25259414974327       1.44235619902200
C         7.68522986442542      -3.87207887096536       1.10242512649640
F         7.41025859079696      -4.06817860551891       2.44309114870165
F         6.98878427055403      -4.80789286434972       0.35721995153282
F         7.27339536871279      -2.60599056341473       0.73439467298177
