23
C7H9F3N2O2 optimized with DFTB in AMS.
N         1.30831877805274      -0.27116353629191       0.38939950833036
N        -0.79318447353427      -0.60765334183206       0.03213095121223
C         0.32739444083827      -1.18174123290151       0.47488422072095
C         0.82682562048931       0.84376375160802      -0.25732941940859
C        -0.49185034072875       0.63437849813370      -0.47858028928921
C         2.71200417868936      -0.60490245859067       0.56324674391007
C        -2.04674123078292      -1.30591252385302      -0.19066811829381
H         0.37790548133741      -2.10058206327281       1.03074103682771
H         1.45787102670825       1.68388398235176      -0.48793914410394
H        -1.23803892055846       1.25048391772352      -0.94775557892060
H         2.99239625531478      -1.30586971794374      -0.22674900148606
H         3.30703652280047       0.30319494118757       0.48979258943102
H         2.85897092557965      -1.06955811251609       1.53792213271575
H        -2.87767327321101      -0.62831258112864       0.00085111164936
H        -2.06172214816913      -1.63941595502633      -1.23220329385807
H        -2.09947195968729      -2.16421376252269       0.47638210418975
C         0.65599031647187      -2.14461994459407      -2.29036310773873
O         1.06463928864598      -2.46081247093813      -1.15734196768441
O        -0.38667063324412      -1.62168344783498      -2.64916204960076
C         1.73773359252856      -2.44417922101233      -3.43389055598992
F         2.04773268735469      -3.74606837094708      -3.51912606188968
F         2.88434736044571      -1.78493817719030      -3.15340336889374
F         1.34432582395886      -2.04512660470822      -4.64707728802967
