42
C12H21F3N2O3S optimized with ForceField in AMS.
N        -1.28046005029053       1.31130956926324      -0.24079328698859
N        -2.70844180987174      -0.36211692595904       0.08574662791751
C         1.11532650419346       1.90393549030592      -0.15906745145380
C         1.60048308334299       0.45997462542316      -0.35200987587611
C        -0.23793148398661       2.14123880647381      -0.84245609368393
C         2.96813389607117       0.23595246973382       0.30105075778116
C         3.44629512117707      -1.20318349984807       0.07543419956350
C        -1.83119541488385       0.20032327662417      -0.76797527978076
C        -1.82590087965744       1.45541928747352       0.98393246397298
C        -2.71239236472769       0.41733625164192       1.18647792411958
C        -3.42600843409296      -1.62056845339570      -0.09942127252302
C         4.83085014759011      -1.42839500391760       0.67411197518536
C        -4.89941710735801      -1.35583213359428      -0.38078102837715
H         1.85943763306772       2.60266983358603      -0.60023619599233
H         1.02896251962969       2.13281794137285       0.92554411092690
H         1.67098872696608       0.24078378197943      -1.44034892507177
H         0.86906788177647      -0.24264076984906       0.10329332035311
H        -0.52092122536225       3.21173489082110      -0.74667665907552
H        -0.14902116235520       1.91539122653565      -1.92813136077562
H         2.89185987034804       0.43224206381860       1.39339048443492
H         3.70631236410901       0.94370663096616      -0.13322047362685
H         3.48883509369041      -1.41852362368726      -1.01471274849300
H         2.73038331099146      -1.91202610818094       0.54628288044655
H        -1.57488512257450      -0.20749332589665      -1.73814144369762
H        -1.58001436407367       2.24141172780592       1.68633167626013
H        -3.29213684945395       0.22864395552126       2.08077432314560
H        -2.99109615295162      -2.18477065238659      -0.95332262390594
H        -3.32224452056881      -2.24706719421389       0.81305219740095
H         4.81885330625127      -1.22353699107189       1.76565851286016
H         5.57392878565834      -0.76522485031599       0.18374143479116
H         5.13736672755381      -2.48348287597849       0.51304414951908
H        -5.36291196003440      -0.81362151238730       0.47014720053623
H        -5.43034024703047      -2.32044909144965      -0.52457196921516
H        -5.00493519029858      -0.74749366690899      -1.30417634762452
S         6.20362822210694       1.57732928225926      -2.76488325155038
O         6.87724901816027       1.00720817427827      -1.50822864216457
O         4.87482921764437       2.12988587101306      -2.22959249175186
O         5.77453128115702       0.31911592902060      -3.53386150143389
C         7.20378710497257       2.76054460168237      -3.70704419223217
F         8.34830324598055       2.13630187607347      -4.16412304048730
F         7.55192254276589       3.82046707164845      -2.89210518475468
F         6.47323788476757       3.22778238271934      -4.78245260047835
