50
C14H28F3NO3S optimized with ForceField in AMS.
N        -1.54341234031423       0.09442974342413      -0.08192146619776
C        -2.55480581773242       0.49239691843858      -1.11509855282959
C        -1.78833198294199      -1.33284265723749       0.30545917341264
C        -0.19732359449936       0.19069925478916      -0.74601881566768
C        -1.62166228771138       0.96653329086961       1.14187257633194
C        -4.01477611224873       0.28186288148648      -0.68110514623263
C        -3.23315234257711      -1.61818448418001       0.76519541344739
C        -4.25010235259578      -1.17141757729805      -0.28157838867804
C         1.02680364554401      -0.12159507322293       0.15066934814656
C        -1.28355793148349       2.45133331885792       0.92454447386859
C         2.32840396841753       0.04140215180623      -0.64629387387246
C         3.55572570130711      -0.29113667319553       0.21058347455602
C         4.84918585358848      -0.09115496532090      -0.58819247067903
C         6.07524001433394      -0.45315404497335       0.24438623814371
H        -2.40747208083292      -0.10686955593403      -2.04445294610658
H        -2.42388948567409       1.54929482681932      -1.42829848591404
H        -1.11759181486005      -1.64021551808254       1.13687159091012
H        -1.56967028992416      -2.01222820759821      -0.55066475405469
H        -0.05625817929543       1.20193066016501      -1.18911864036478
H        -0.15400369011370      -0.50723081029389      -1.61452763417356
H        -2.63146600577084       0.93879880875328       1.59414541297407
H        -0.95471621309159       0.57809126277516       1.94166805210144
H        -4.68160689076146       0.52925180794630      -1.53532767611379
H        -4.29197554155950       0.96535652269570       0.14745543892741
H        -3.44488182165633      -1.12624615409427       1.73731273864988
H        -3.34838250821957      -2.71123599698101       0.93021444257160
H        -5.27744870178666      -1.28091232427516       0.12790056973550
H        -4.16704623309263      -1.82183737084403      -1.18011161851336
H         1.06908837455422       0.56995302666854       1.01590368515632
H         0.97494263429775      -1.16474014594827       0.52467016129054
H        -0.24507003368574       2.58591628603748       0.56759052316688
H        -1.99236865859163       2.93680146279952       0.22552742745973
H        -1.36789793279185       2.98304443972029       1.89585059449862
H         2.40681078605346       1.08991878098621      -1.00831526129314
H         2.30729488861838      -0.63363869685590      -1.53017022403266
H         3.49084024509290      -1.34893592560247       0.54879121449699
H         3.57232419076097       0.36751496896974       1.10689011446992
H         4.83203746527492      -0.73073552583164      -1.49768983937153
H         4.93143119344686       0.97107731689208      -0.90655567395586
H         6.03309042720520      -1.52073454149642       0.54859742217300
H         6.99399772435880      -0.29265245577156      -0.35843757500947
H         6.12864040576593       0.18614862258761       1.15118258290435
S         2.92314281348751       3.48902100121967       2.86969588642574
O         2.50882970405234       4.32950254804526       4.08666985527248
O         2.19949451329995       2.15477227998274       3.10395006909881
O         4.39099928718458       3.14776585291389       3.16624798435181
C         2.62249380735421       4.26632246633263       1.25805987251776
F         3.35536654965997       5.43366597786835       1.16504422153558
F         1.27923536586774       4.56001912607586       1.13036852016863
F         3.00478883268586       3.40171201241091       0.25082454559662
