68
C18H36F6N2O4S2 optimized with ADF in AMS.
N        -0.71857162670031       0.72859762531155       0.20214801345512
C         0.46121195043189       0.36658163834047       1.09387593918817
C        -1.90832162110862       1.11090654601636       1.08268263473246
C        -1.05777201338289      -0.45488727256040      -0.68173155932028
C        -0.37561585649518       1.92252101191590      -0.68542088461746
C         1.00670793859396       1.51047121214116       1.92514552984617
C        -3.22101247310669       1.31643449394274       0.34447657350973
C        -1.48515615984269      -1.72041458537147       0.04337769977220
C         0.90999711288544       1.81200618728695      -1.48753117537958
C         2.21064745679162       1.06401198545584       2.75513778622033
C        -4.21866642787742       2.06453512750212       1.23656287841280
C        -1.87888225679681      -2.80290513742508      -0.96512112763676
C         1.11392681630926       3.10919530029024      -2.27812226541167
C         2.73610398221567       2.21720249954073       3.60827329770934
C        -5.52878185643266       2.33720480082583       0.50488826814299
C        -2.30183876815242      -4.09797680994332      -0.27817482742284
C         2.39099189161441       3.08766024006316      -3.11003143816878
H         1.23190068021018      -0.04864615197685       0.42586432959028
H         0.10777977575836      -0.44429887105874       1.74613734612705
H        -1.61786797298489       2.03146438832318       1.60545460777004
H        -1.99836877654156       0.31784653064102       1.83999240079517
H        -0.16374417195927      -0.65007922180592      -1.29061494290920
H        -1.85713991574121      -0.11217468757787      -1.35509662865994
H        -0.33423423123419       2.80099241072746      -0.02654744252910
H        -1.23157108740445       2.05223066355686      -1.35999049705268
H         0.23487102646052       1.90665005361707       2.60098115985046
H         1.30662743319521       2.35848600672599       1.29107365427172
H        -3.65518518525244       0.35232531334025       0.02451959639646
H        -3.06768840118322       1.92467329900271      -0.55969928296868
H        -2.34454030564539      -1.52014771995659       0.70427172712609
H        -0.66770272440601      -2.10626245022500       0.67457772936940
H         0.88248673573442       0.96053756985380      -2.18983669622738
H         1.77827185964313       1.66835323307198      -0.82327549028207
H         3.01191630062377       0.69318346458955       2.08890707917652
H         1.92459435119412       0.21731683393834       3.40583352114151
H        -3.76628194501070       3.02071750742586       1.54908894540135
H        -4.40771246910579       1.47836862351476       2.15461488918559
H        -1.02862285148325      -3.00081982397116      -1.64266948840125
H        -2.70424488450455      -2.42990889836951      -1.59782897033838
H         1.13863590210476       3.95454585767188      -1.57111872142060
H         0.24145902548767       3.27980690401943      -2.93293030942423
H         1.95230594584345       2.58650710264208       4.28794766653296
H         3.04144466666554       3.06397814902461       2.97370753382870
H         3.60198632742326       1.90722988100141       4.21061344221034
H        -6.01830427414712       1.40220484447297       0.18507766070245
H        -5.34973217754753       2.95717764300410      -0.38800818340615
H        -6.22849566852142       2.88746548681151       1.14998542540791
H        -3.16901396042978      -3.93023665788879       0.38050420081293
H        -1.48402106098887      -4.50336501500941       0.33873616190874
H        -2.58069615373777      -4.86482221144462      -1.01510844123290
H         2.38430893315359       2.25764306956685      -3.83515792519316
H         3.27933637284963       2.97139013385262      -2.46818708129209
H         2.50401226153982       4.02640557042584      -3.67180766904118
N        -2.36645432298280       5.06755728760610       1.50255562473248
S        -2.65367925141699       6.23842499433287       0.42116923556341
S        -0.92438132708502       4.76692070639497       2.12314392616285
C        -2.29303676405187       5.44023520301204      -1.25513938872209
C        -0.42886434460790       6.19331268418332       3.28866962534757
O        -4.09482587884904       6.42379533831149       0.37078350048291
O        -1.73937122058272       7.37020884944727       0.48097725789560
O         0.18864159140651       4.68185129565264       1.16741662315168
O        -1.11830939084055       3.64378048703547       3.04942143973477
F        -2.84159941769779       6.18664272624050      -2.23941992219343
F        -2.83502278454630       4.18513814646583      -1.33267866745182
F        -0.96708292064227       5.33111934276425      -1.49391125497298
F         0.41041661946111       5.68430201012570       4.22900186421276
F        -1.51314116702419       6.70457387517078       3.90777713373125
F         0.21497048845519       7.17445527638627       2.63443579656639
