31
C9H16F3NO2 optimized with ForceField in AMS.
N         0.83424958789107      -0.01231293772940      -0.05350661556314
C         0.07598463133438       1.22134026581529      -0.41562481157135
C         0.06913921330334      -1.23956705675888      -0.42147443908154
C        -1.35276010827573       1.24994510919312       0.15556337726468
C        -1.35882639654563      -1.26276634350521       0.15152075646872
C        -2.12456399829852      -0.00394217774949      -0.24963153928204
C         1.18005401570803      -0.01652895699460       1.39112863930957
C         2.10693039060526      -0.01368442278998      -0.81682568020888
H        -0.00688316854560       1.31118598671715      -1.52381976958742
H         0.61497182095502       2.13065816662541      -0.06323522257558
H         0.60379579566402      -2.15358488581076      -0.07495657591568
H        -0.01564208429844      -1.32261062793261      -1.53001638768733
H        -1.88255939112043       2.14242197146959      -0.24221391984798
H        -1.33472603074822       1.34887229612429       1.26133758998557
H        -1.33962130872506      -1.36397595038463       1.25702366974499
H        -1.89349538833231      -2.15171397279723      -0.24751628485534
H        -3.12017374442834      -0.00237180908071       0.24409074995353
H        -2.28505763869579      -0.00184287778855      -1.35059228349201
H         0.28332851914535      -0.01070413276499       2.04119643589098
H         1.77362989919840      -0.91908914859368       1.65843659567881
H         1.78417824516166       0.87860626963612       1.65515233747735
H         1.92166686346842      -0.01318382515612      -1.91471590185360
H         2.71867148631496       0.88609993101511      -0.57967461655549
H         2.71693424389304      -0.91452402835892      -0.57952198166034
C         2.23354009137111       1.31637833804912       5.83398614424334
O         1.38686501180853       0.49489757014174       6.14851696895296
O         3.24938280649936       1.42106948878636       6.50240569495837
C         2.03621617286749       2.19219510031614       4.63257046789093
F         2.09575347344109       3.52014869730642       5.01236708402646
F         0.80555039382196       1.94723893791303       4.04823132991831
F         3.03495548026158       1.93926363858686       3.71067701557313
