25
C9H13NO2 optimized with DFTB in AMS.
N         0.05311992326610      -0.18391433919201      -0.26316640250090
C         1.49896661444161      -0.39155645117239      -0.34035231245579
C        -0.42932353224097       0.94523051610607       0.33625933215359
C        -0.79666089323623      -1.31585943301944      -0.51112445077766
C         2.11840578933409      -0.60424403308545       1.04127997834956
C        -1.75445097059682       1.19040032895152       0.44561703385513
C        -2.23742648035454      -0.93074700244175      -0.58990879277518
C        -2.67884333535447       0.23106934259265      -0.08421968357564
H         1.68099333537586      -1.26530896954293      -0.97103028518959
H         1.94983857277806       0.48576646864414      -0.81823823852191
H         0.32021847912185       1.66480923816981       0.64798622328991
H        -0.44915010690453      -1.84712330343863      -1.40941434371230
H         1.98334538138456       0.28017191508681       1.66383867515036
H         3.18575696345741      -0.79503674677495       0.93104708876104
H         1.65768859885856      -1.45414947352705       1.54174138645129
H        -2.11212097717450       2.11054849762436       0.88586754912785
H        -2.90267087325533      -1.67727100588070      -1.00493225389129
H        -3.73424521183556       0.47940071460266      -0.10592438473844
C         0.06905570045037      -4.27953494584631       1.61536647229815
C         0.13258642763649      -3.34325143425297       0.43013943074834
O         0.81055870016739      -3.53842755380081      -0.54535471048146
O        -0.65998885436097      -2.29309471994470       0.60404568578831
H        -0.86389221539021      -4.83948801156835       1.56150981316838
H         0.90763994561148      -4.97065443642698       1.58298786086210
H         0.07793736512026      -3.71010399526260       2.54209215461614
