35
C11H17F3N2O2 optimized with ForceField in AMS.
N         1.01949201977223       0.34569133750485       0.44725711009443
N        -1.01196041565006       0.34795684435899      -0.45678467485734
C         2.27552241205602      -0.12893981256626       1.02489636315815
C        -2.26438345858305      -0.12317865792982      -1.04503689350102
C         0.00507228613822      -0.41371590681133      -0.00955788031726
C         3.44550857638682       0.09269511607027       0.06036336902196
C        -3.43659256682095       0.07102712677689      -0.07696796799261
C         0.63202547237250       1.62697152360665       0.28453798372112
C        -0.62940221543073       1.62835181190603      -0.27699970145846
C         3.28901306126805      -0.72512816938315      -1.22090722953789
C        -3.26881924710722      -0.75830716954805       1.19547528791231
H         2.19894874899388      -1.21176210811475       1.26716856859500
H         2.47010150222212       0.41291884180302       1.97571598481005
H        -2.17975485369960      -1.19977081175659      -1.31229969742750
H        -2.46253916632262       0.43799706836915      -1.98380289681577
H         0.00705974422052      -1.49651550355145      -0.01671128982868
H         3.52943223456606       1.17114019712569      -0.19486246900943
H         4.38633293017437      -0.21379409993548       0.56629372367303
H        -3.53470282226631       1.14536067565072       0.19026082863880
H        -4.37362201119687      -0.24222153103140      -0.58583891933603
H         1.21901629754541       2.49437978985760       0.55722644667145
H        -1.21923859332265       2.49696859027832      -0.53959840013789
H         2.41898829837604      -0.36259860057813      -1.80813534865127
H         3.14507085127331      -1.79988032492307      -0.97960104482139
H         4.20203745635712      -0.62106800689045      -1.84361973012387
H        -2.40426564697267      -0.38983158552028       1.78711237847085
H        -3.10991864162392      -1.82827694518888       0.94286075022089
H        -4.18335669679469      -0.67333504913904       1.81890923784121
C         2.95348008070147      -3.08345825394223       5.28400620513543
O         3.41418989631907      -3.60919123636500       4.28316580353758
O         3.35864135824556      -3.42188277924172       6.38433951905773
C         1.89745431878035      -2.02511917178442       5.16999298384429
F         0.77837191028595      -2.40997662425903       5.88496312872112
F         1.54168541097534      -1.83389501317792       3.84662317472563
F         2.38005948706091      -0.83591066326974       5.68412589426537
