41
C13H21F3N2O2 optimized with DFTB in AMS.
N        -1.02051462872494       1.09466467166443      -0.42402593248577
N        -2.36121614231883      -0.58810488151474      -0.37088053273122
C         1.28000596929893       1.93856030621021      -0.13204822719482
C         1.93402221635034       0.57394680508935      -0.35667519518453
C        -0.03196661310431       2.05727796394441      -0.91201819542999
C         3.29078769404817       0.45299681009937       0.33836000697489
C         3.89758597563938      -0.92502011614937       0.05035096802959
C        -1.56506333051753       0.13137349803317      -1.16016578861414
C        -1.48295670111610       0.99672574915407       0.86055249272719
C        -2.33093005320243      -0.06564384822287       0.89300858648442
C        -3.11208694037904      -1.76850621458658      -0.79579847836995
C         5.30905895779242      -1.04810068160759       0.61985891733693
C        -4.12153310337163      -1.39941927445305      -1.87527617022675
H         1.94250862268333       2.73198339156235      -0.49086693318550
H         1.09678867233644       2.11049748159444       0.93388080920619
H         2.07554776252191       0.42023820255649      -1.42899137526208
H         1.26513562571271      -0.21290264703789       0.00768069683310
H        -0.45772363889840       3.05994472110255      -0.80889445599871
H         0.13657103457175       1.83198457970818      -1.96871780892314
H         3.17602134270598       0.59480486545700       1.41971384626209
H         3.96144950197883       1.23632411961505      -0.03255572796697
H         3.91898096231641      -1.08797875983698      -1.03173848192478
H         3.25830872049409      -1.69903802756719       0.48805919821185
H        -1.35595047294463      -0.04589747536342      -2.20623522954600
H        -1.18175405641046       1.67806013177597       1.63657923588592
H        -2.90063212836624      -0.48740565360340       1.70260122843681
H        -2.39518588522186      -2.50166780574911      -1.17614323254047
H        -3.61136124151567      -2.17619574604475       0.08644469532635
H         5.30291236566617      -0.89951197173120       1.70151021032684
H         5.96943697447602      -0.30356315157997       0.17202716673140
H         5.71113131113380      -2.03931420429428       0.40839045940077
H        -4.79202586679978      -0.61561703578062      -1.52336261057678
H        -4.70729963901202      -2.28215927324387      -2.12752461803591
H        -3.60744586983737      -1.05483545303382      -2.77116022230902
C         0.93331589830954      -1.23465630582631      -2.95790760246288
O         0.43334844907027      -0.11391335064530      -3.09069231111266
O         2.04697305127405      -1.62511707105532      -2.67734340626267
C        -0.18883573565527      -2.42445488578760      -3.09390883935584
F         0.08037585638196      -3.40545423354685      -3.95563954551947
F        -1.41163404206449      -1.92599059805268      -3.43594434123531
F        -0.39151340870151      -3.00774584335227      -1.88021688601898
