32
C10H14F3NO3S optimized with ForceField in AMS.
N         1.12950110231287      -0.01299790364779       0.51535185502204
C        -1.24931724711133      -0.00918694381915      -0.10828180142786
C        -0.24003717800572      -0.03110336919744       1.04351981809314
C        -2.68874238802603      -0.02401590548549       0.41680982189086
C        -3.69136126102725      -0.01283069981134      -0.73248220979914
C         1.75441408262740       1.18301587278201       0.28807236217352
C         1.76296398886890      -1.19165876408229       0.22884575603286
C         3.04949939856150       1.21846470141393      -0.23455919465666
C         3.05821043142904      -1.19169536731695      -0.29460913208252
C         3.70310709862881       0.02225815337657      -0.52642795012977
H        -1.08176098539831      -0.89755620087128      -0.75623391156782
H        -1.08692314236715       0.90701866140738      -0.71770463659752
H        -0.39951984418752      -0.93982375176847       1.66641438873237
H        -0.40750476746915       0.84648770198783       1.70759123491455
H        -2.85543665593111      -0.93606917885804       1.03040265836980
H        -2.86386942820930       0.86882920996001       1.05587084341875
H        -4.72485289570721      -0.01919049628171      -0.32702706975089
H        -3.55769680886791       0.90084016777292      -1.35010809243274
H        -3.55484911440268      -0.91185304318432      -1.37078173154826
H         1.24990330463176       2.11746400084115       0.50420882695224
H         1.26525843538899      -2.13933276976805       0.39815424319067
H         3.54004206056704       2.16624233240353      -0.41496890807682
H         3.55559078951991      -2.12573707871808      -0.52184566810215
H         4.70557613226172       0.03604503449288      -0.93426343919803
S        -5.83837829360945      -0.74024449887165      -4.47420213174329
O        -4.68955279623374       0.04676660528530      -3.82812480100345
O        -6.82819812431715       0.36195836567909      -4.87908338289741
O        -6.52636577442359      -1.40407206590983      -3.27209099957821
C        -5.34297176381896      -1.86683844813991      -5.80875665627310
F        -4.53612189362198      -2.86405983064655      -5.29555122235780
F        -4.64599471366867      -1.16250461977111      -6.77153643259820
F        -6.46742795499376      -2.43291716085314      -6.37781091766915
