47
C13H26F3NO3S optimized with ForceField in AMS.
N        -0.71282134156777       0.31691605729080      -0.15875365246426
C        -1.27895707884203      -0.44766613753150      -1.31794340239040
C        -1.84147007562997       0.72963087635014       0.73902324469237
C         0.27571631834406      -0.50247655964020       0.62699967198237
C        -0.07748301025266       1.55384657971201      -0.73240569628222
C        -2.13325926697311      -1.66095038715421      -0.91413704034114
C        -2.73967930769866      -0.43879608515740       1.19605449480197
C        -3.27186097378597      -1.23221745878486       0.00616651020193
C         1.55411943743047      -0.92974684735089      -0.13324059543433
C         0.65880718129806       2.46666070925663       0.27935223639786
C         2.47492476630801      -1.74545484852288       0.78462629377772
C         1.22706304007030       3.70099397731936      -0.41817999362622
C         3.74865280742454      -2.16617769908919       0.05910338205803
H        -0.48284700146536      -0.78580910221160      -2.01294242328897
H        -1.93399314566857       0.21678216444684      -1.92937976874587
H        -2.49585091674872       1.47260205875603       0.22728764295610
H        -1.45960567538862       1.22128121529218       1.65940905335340
H        -0.19326141677214      -1.42990830173149       1.00819792796317
H         0.58165503633002       0.04573551065825       1.54506876458203
H        -0.85227115684207       2.17658605179441      -1.23787053720658
H         0.63882783242287       1.28291814222074      -1.54011033585146
H        -1.51547591005583      -2.44669661020307      -0.43293922001258
H        -2.56864414733335      -2.11391533966927      -1.83122767706761
H        -3.60210545336739      -0.02782201988904       1.76430863787208
H        -2.19542169515444      -1.11137695129399       1.89113721197864
H        -3.99396615944020      -0.60596092127521      -0.56285877110575
H        -3.81140547549237      -2.13245337287441       0.37170334563047
H         2.11706398346162      -0.04224550204135      -0.48722208496136
H         1.29397725868957      -1.56239617199060      -1.00571661325984
H        -0.03121363521286       2.81570105506878       1.07346825627782
H         1.50771728594384       1.93309578668965       0.75254351470708
H         1.94464933428839      -2.65789956116754       1.13483860246030
H         2.75388505732605      -1.13753817040943       1.67294909221568
H         1.75954251282138       4.33550512486025       0.32158361023568
H         1.94683938462865       3.40123349236989      -1.20963940907689
H         0.40943869494448       4.29941285559308      -0.87370742106167
H         4.30321752611554      -1.26877181322761      -0.28280744111271
H         3.50310574971518      -2.80245268316552      -0.81756429755324
H         4.39802466058392      -2.74473528470492       0.74951677485400
S         8.66750096507511      -1.97601482886399      -0.61486477198442
O         9.89818616776264      -2.65264691921673      -1.23695550987138
O         9.26859363668776      -1.14026919869827       0.52513882306508
O         7.97279665225741      -3.12834153972325       0.12618881450159
C         7.61889935580628      -1.05693893486133      -1.77826645736208
F         7.10782356494843      -1.92432589448775      -2.72498706222701
F         8.36903305749821      -0.08101145859676      -2.40569078644687
F         6.57995771330930      -0.46160620774473      -1.09093316203051
