20
C6H11ClN2 optimized with ADF in AMS.
N        -0.42438806417556       0.20970422017361      -0.42233472387944
N         1.65818772988204      -0.29559496616407      -0.07451229227792
C        -1.86612872689300       0.07020734516480      -0.64032058565138
C         0.45664407742695      -0.80367776459201      -0.37498694855946
C         0.24506157056346       1.38421731515106      -0.12955992982702
C         1.56120999731766       1.07493528497534       0.08607429446346
C        -2.62676953609572      -0.03027279803020       0.67321783138160
C         2.91388633060006      -1.04349175788759       0.05026563640219
H        -2.18674718300812       0.94208146750925      -1.22990490519179
H        -2.01825719742751      -0.82192263921845      -1.26610262489126
H         0.22993919745942      -1.84593561603790      -0.56021958183579
H        -0.26729345516023       2.33871533364485      -0.11955387708156
H         2.52596887918533       1.64650600011236       0.22509833040963
H        -2.30112187625613      -0.91105478889807       1.24554952394133
H        -3.70459150738940      -0.12193879788008       0.47463823210807
H        -2.46169127724637       0.86419928261481       1.29104404243359
H         2.92113858865510      -1.85281341180851      -0.68994581600601
H         3.73330317528994      -0.30276414171400      -0.11897971047275
H         2.99255489954779      -1.44499145140378       1.06890625166007
Cl        4.53575637222429       1.78944395418859      -0.01577483552555
