61
C17H24F18NP optimized with ADF in AMS.
N        -1.19245007560691      -0.07755205770357      -0.88358625905217
C        -1.24624191746014      -1.19011543980792      -1.92172696265115
C        -2.46546391433100      -0.31519992122771      -0.09967646974556
C         0.01849219982429      -0.20234416658545       0.01076835966241
C        -2.71485434724719      -1.27059171551038      -2.33556109645264
C        -3.51669352403461      -0.67639831235233      -1.14791634169819
C        -1.22923729688716       1.26756996490003      -1.59527755675067
C         1.34189191242259       0.00750465212417      -0.70180550777150
C        -1.16839986051262       2.47011767550447      -0.67961951352731
C         2.51739201517466      -0.29123697237436       0.23056687985825
C         3.86209078279039      -0.09652613521980      -0.46970718944465
C         5.04710957121426      -0.42586058703684       0.43248135680535
H        -0.57189837266914      -0.95840665866397      -2.75175331338091
H        -0.91156346193351      -2.10072313448027      -1.40224864335925
H        -2.25424630706036      -1.16484378657380       0.56752355588857
H        -2.69421786935051       0.56615966949029       0.51175558237095
H        -0.11647526953916       0.51696608885922       0.83311180701656
H        -0.03560166400608      -1.21549392198770       0.44100058779958
H        -2.87777633903472      -0.70489610551965      -3.26319131803735
H        -2.98586973766482      -2.31493721602193      -2.54279002736469
H        -4.23650957383318      -1.39124348997100      -0.72461673910183
H        -4.08665772071065       0.21092298066075      -1.45940838922263
H        -2.14289491871740       1.27055624206878      -2.20187399839610
H        -0.39352122044844       1.25942961469836      -2.30200893750958
H         1.42808146788969       1.04245604953606      -1.06879025214428
H         1.40871306166842      -0.64410650505810      -1.58706161647983
H        -1.99399913804191       2.50848044261536       0.04540153011367
H        -0.21449749047193       2.54300813730905      -0.13913018959657
H        -1.25187526832067       3.36331319998532      -1.31654828423399
H         2.44334660823625      -1.33180551284368       0.59906152360612
H         2.46687657846728       0.36210562198484       1.12214367606614
H         3.89088031957609      -0.72841959951875      -1.37438515630564
H         3.93751831991930       0.94563096966355      -0.82556033420700
H         5.99995135444698      -0.27748614034551      -0.09727283235671
H         5.05552159617739       0.21502729102109       1.32874523419941
H         5.00887762223578      -1.47459109961247       0.76868791720211
P        -0.34193208417287       0.53078425250270      -6.02147673416503
F        -1.89294775459343       0.48101290155932      -6.61444657877442
F         0.36791496984679       0.52324035229395      -7.51206419680643
F        -0.99278283393847       0.56080240552950      -4.44924433849103
C        -0.55825331358538       2.48483149327241      -6.18929463704033
C        -0.44357569426153      -1.51028435346860      -6.10838027648182
C         1.48402082264600       0.46498950459872      -5.10723148585662
C        -1.54167407812792       3.23644930051973      -5.23971618526248
C         0.73357458126201      -2.49460635361977      -6.44275482380382
C         2.27152616262286       1.61071364216431      -4.38659478980900
F        -1.02242925440340       2.76100866927525      -7.45417801507785
F         0.64082105465298       3.15669544527245      -6.06618035792590
F        -1.34200393920776      -1.80366489491443      -7.10819949505109
F        -0.99108141891123      -2.01356568197629      -4.92917985230183
F         2.40645769179954      -0.05961250260383      -5.97752590817676
F         1.32183836676788      -0.46922015280966      -4.07393969457869
F        -1.65600888779982       4.53203006046164      -5.63973947749241
F        -1.08758357722088       3.26291931950434      -3.95103746393091
F        -2.78123992729292       2.69689780792922      -5.23065790687110
F         0.20053299529906      -3.74005643736774      -6.63223655679759
F         1.37168793214057      -2.14438462033686      -7.57828412567314
F         1.64375439953192      -2.61743607544790      -5.44782621120353
F         2.91073034619811       2.42666318747429      -5.24163881087261
F         3.23085799422694       1.05416416500429      -3.58253428727163
F         1.46665714285968       2.34990673307682      -3.57234971118291
