45
C13H25BF4N2 optimized with ForceField in AMS.
N         1.36182980649645       2.27784506594466       0.03646472675247
N        -0.84260755672048       2.43491506445055      -0.21478925153077
C         2.74108780141273       1.86592099098167      -0.21665177449168
C        -2.17870060145773       2.23471540709954      -0.77515056080231
C         3.01320336433927       0.46677437993025       0.35685415530034
C        -2.41735421846543       0.75502320524664      -1.11275528402660
C         2.08258650618713      -0.59412420910848      -0.25142048182499
C        -2.35920025861673      -0.13590400022401       0.13674463917849
C         0.33154616460040       2.18414141370118      -0.82634065324300
C         0.82380218417764       2.60768501823680       1.22787481235759
C        -0.54221008101433       2.71291717147544       1.07036635821746
C         2.43816377968927      -2.00006966657577       0.24219065581705
C        -2.55638514095302      -1.61120502543796      -0.22778358555660
C         1.46169248067587      -3.03575836949561      -0.31099645580556
C        -2.47780501908945      -2.49828494214139       1.01259353395215
H         3.43461185661084       2.59906545459360       0.24852610224971
H         2.94004663781225       1.86319463816810      -1.31071570355120
H        -2.28316420650452       2.84535903465853      -1.69721334687896
H        -2.95219599850901       2.57904892867123      -0.05420693362193
H         2.88401523214461       0.48693367859986       1.46079536863617
H         4.07028675606712       0.19881648775451       0.14043301681130
H        -3.41690168913937       0.65531918578112      -1.58864632112917
H        -1.65651710388306       0.41520391460446      -1.84737232839532
H         2.15838543494000      -0.56222743382195      -1.36033099032414
H         1.03340061311608      -0.37245740583261       0.03776819867621
H        -3.15008421187227       0.18008953724154       0.85144677652556
H        -1.37144457204520      -0.02143197010445       0.63201722351584
H         0.42648298304506       1.85142058101402      -1.85253603640648
H         1.37463933099414       2.69852338898463       2.15491776143069
H        -1.26652388871022       2.90031539375605       1.85225121338409
H         2.40123350037591      -2.02884110447496       1.35282771659416
H         3.46759817421847      -2.26255245214948      -0.08401115468061
H        -3.54801263840446      -1.75040066317255      -0.70991900640427
H        -1.76958967473830      -1.92688866600247      -0.94695606536556
H         1.48636260071285      -3.03820273773840      -1.42130779568067
H         0.42975491791393      -2.80997951467778       0.02787804156231
H         1.73951505649723      -4.04657256406993       0.05461959253647
H        -3.29996956294394      -2.24936652232110       1.71630692091560
H        -1.50422897002708      -2.35960858096490       1.52903927038252
H        -2.57295757247412      -3.56429832618127       0.71635197517043
B        -1.15933791779195       2.46243930501815      -4.90591566563949
F        -1.14186199875998       1.15997641917278      -4.34201546201485
F        -0.31853837192790       2.49251143275840      -6.04971539877633
F        -0.69008490674066       3.40094222350331      -3.94937154408105
F        -2.48650128093805       2.79623859874808      -5.28478777653511
