29
C9H14BF4N optimized with ADF in AMS.
N         1.74687799023485       0.25738873830549       0.12804310940816
C        -0.72414679706802       0.07112830726158       0.00236860553745
C         0.47588250544994       0.42717834390982       0.86985435865761
C        -2.03372747590178       0.24862207852925       0.77161353343195
C        -3.25817175960246      -0.10268771172762      -0.06957979351387
C         2.25797065689322       1.30100514193288      -0.55472610596880
C         2.40433744437622      -0.91703951764971       0.19725860300755
C         3.44984273375743       1.17585360243802      -1.23982924655092
C         3.60035003159360      -1.09160617678828      -0.47026274314806
C         4.13317816430178      -0.03382954442422      -1.19772167055556
H        -0.63285094732392      -0.97469358227513      -0.34575502604132
H        -0.73200039787872       0.70860113218386      -0.90135294741541
H         0.56031112634882      -0.19687680257514       1.76998777311990
H         0.46315314595941       1.46831401411222       1.22067358120005
H        -2.00876597209160      -0.38185748485457       1.67846684407137
H        -2.10853976730896       1.29359485596784       1.12276719832492
H        -4.18617878318014       0.03182298107702       0.50538636099080
H        -3.32101712094931       0.53657122036148      -0.96477936316240
H        -3.21982937247569      -1.15106347890369      -0.40643563247441
H         1.69709848945171       2.22975480064648      -0.49913732997446
H         1.95632262960492      -1.68010239188377       0.82748428527086
H         3.85365297485241       2.04147087486890      -1.76335185299366
H         4.12586424731062      -2.04123250537009      -0.37698543874368
H         5.09590873652718      -0.14061124833534      -1.69977906230039
B         3.44077198563867       1.18490526902680       2.61296139775773
F         3.96388414324279       1.62445327285367       3.82775447627647
F         2.67463245725102      -0.02617592064302       2.80467552061817
F         4.46194957686374       0.91635880558725       1.65840405831955
F         2.55454669472227       2.18271475416802       2.05603100755039
