22
C8H8F3NO2 optimized with ADF in AMS.
N         0.05776866013370       0.77275188953383       0.21835974618100
C        -0.04480195368171       0.70300431167763       1.57349845609906
C         1.26829992357646       0.94063707509652      -0.38574744587383
C        -1.15554429452641       0.91087721057148      -0.59542375645473
C         1.07227383420634       0.61285810712532       2.36123592895897
C         2.43246129737015       0.71558886061640       0.37836758545896
C         2.33915536280940       0.57323329165232       1.74027562908126
H        -1.05778261219021       0.69740506796471       1.97228718856378
H         1.25439023830138       0.93563238575041      -1.47481119491800
H        -0.94182624838389       0.57464520673738      -1.61468875194311
H        -1.95355872028891       0.30286204480810      -0.15306698753330
H        -1.44212537826172       1.97101422437253      -0.63417438051770
H         0.96297714432858       0.54141502201254       3.44249138974956
H         3.39290513411571       0.71040922993451      -0.13657734574871
H         3.23643166049053       0.42549700060244       2.34303601970163
C         0.92750889264787       3.36319332336218      -1.74662784349051
O         1.30355833224419       3.06642116197448      -0.56082302424976
O         0.52722962344961       2.62686902397992      -2.66074639885424
C         0.99615687179155       4.90381239389000      -2.02064565433265
F         0.23164556953803       5.59623638483498      -1.11911473734799
F         0.55248670917383       5.22743659351773      -3.26054468452463
F         2.27754503945553       5.36617737618460      -1.90816863070507
