36
C10H17F3N2O3S optimized with DFTB in AMS.
N         1.00256746523926      -0.97861572971599       1.63522585966084
N        -0.32961514909486      -1.15810049068739      -0.04782839261811
C         1.74124352919903      -0.42483171058544       2.76549965732488
C         2.96674236382696       0.36554566299702       2.28956398666313
C         2.59775125531639       1.73251769052261       1.70763577957654
C         0.06414822931180      -0.34550360189420       0.93239609359327
C         1.24412483254788      -2.19659865284142       1.06287199981240
C         0.40514276647289      -2.30891226691153      -0.00024225278421
C        -1.29093293921775      -0.81168791561515      -1.09126004192100
C         3.81514913420073       2.39288748839312       1.06228887436933
C        -0.57196938610990      -0.20034036515086      -2.28954996799198
H         1.05779057088760       0.20839630023876       3.34003349288047
H         2.05433115669748      -1.26730442412783       3.38722236125494
H         3.49471605604424      -0.22772429227676       1.53885300733399
H         3.62867177767906       0.49673178259620       3.15046154966990
H         1.82443816580101       1.60635523675301       0.94500894943658
H         2.19440338053941       2.37400549549995       2.49983704393799
H        -0.33687488158710       0.63009056457014       1.14286180267423
H         2.01003025049994      -2.85775118429743       1.42669667233050
H        -1.81684141673966      -1.72753934033569      -1.37397914400212
H        -2.00866098869822      -0.10615085177793      -0.66217801880680
H         0.29722779642093      -3.08871419379687      -0.73257947263302
H         4.15353093104622       1.79786432152101       0.21439859653475
H         4.63199393438549       2.48222221353894       1.77965998547992
H         3.55070016439724       3.38861112256705       0.70599210650908
H        -0.01909862115876       0.68570865019289      -1.98230791335242
H        -1.30787532750388       0.07327674281417      -3.04437227459508
H         0.13153301143015      -0.91611872562566      -2.71099346522827
S         2.88575193612188      -0.93411324901096      -1.32982892414702
O         2.14069243744044       0.26417267874058      -0.95808560587182
O         2.12549153095079      -1.87421854589063      -2.13695719050402
O         3.61642387863129      -1.54083639989654      -0.22851622551089
C         4.20057253686176      -0.30035212624701      -2.46631987619587
F         5.00953432184412       0.53439983783441      -1.81736491930170
F         3.65544125195639       0.35874885183879      -3.48344753238729
F         4.93218541665975      -1.29302141663337      -2.95433755869110
