54
C14H26F6N2O4S2 optimized with DFTB in AMS.
N        -2.40276455982393      -0.36850325052555       0.42104091692513
C        -2.60795583060027       1.11485034996659       0.29571561944344
C        -3.13126432774354      -0.88346797761891       1.63301707475723
C        -0.94348816328803      -0.67098258158542       0.63521403321373
C        -4.07597409556085       1.52595427138732       0.32161540694674
C        -4.61129603864129      -0.52357035732957       1.64205009845122
C        -4.79662751747462       0.98840055851237       1.55442613962661
C        -2.88254791617760      -1.07298509032487      -0.79641145738016
C        -0.00466216916169      -0.17162933809346      -0.46142386234663
C         1.43166027033709      -0.59620870703018      -0.12980272495343
C         2.40540472131172      -0.11412280378182      -1.20945947473259
C         3.84232720190612      -0.53623178958094      -0.88695138986687
C         4.81539950018160      -0.05664032277599      -1.96226060528304
H        -2.15786693150112       1.42601336723296      -0.64863528804141
H        -2.06488266182110       1.57850763546980       1.12470425969955
H        -2.63592558732188      -0.44981056976553       2.50707849707888
H        -2.99589056248057      -1.96723948101703       1.65024804126967
H        -0.66156955228694      -0.22074399695592       1.59105342130672
H        -0.86381807206392      -1.75783841483386       0.72646786878728
H        -4.10123335253810       2.61875865102043       0.32041610704683
H        -4.58170355459374       1.18077400831730      -0.58096338829791
H        -5.13497115838404      -1.02398121950559       0.82582520948640
H        -5.02727483291994      -0.89750989890669       2.58133173845663
H        -4.39972606932007       1.46647572096505       2.45687791097925
H        -5.86060703934339       1.22116799922286       1.47913890101042
H        -2.30276039829495      -0.74774411598868      -1.65502985138114
H        -2.77782777696031      -2.14656281342451      -0.65438982895236
H        -3.92334872238693      -0.82753430589231      -0.95926820238937
H        -0.28401558702758      -0.58953057265656      -1.43109004459209
H        -0.04794421245385       0.91790748783608      -0.53439756739917
H         1.72059983278886      -0.17849782311849       0.84063237402623
H         1.47929463755155      -1.68756507388886      -0.05277191744596
H         2.35173603031351       0.97712685118931      -1.28570153484250
H         2.10907666813060      -0.53172813457044      -2.17734644167950
H         3.89164747030426      -1.62763025439923      -0.81051844667225
H         4.13477683619971      -0.11933287923102       0.08279616425637
H         4.55091688842731      -0.47875335162652      -2.93251017354165
H         4.79431953710877       1.03118490509327      -2.03929312971100
H         5.82958781275109      -0.36800570223826      -1.71232226538121
N        -5.11024613609819      -1.77371898151522      -3.11951123715614
S        -6.04391814478558      -1.53103245608174      -1.84604926191586
S        -5.17107378643518      -0.69341456630855      -4.30958298221587
C        -7.80936001576464      -2.00927116177699      -2.26961749896667
C        -3.73456692024501       0.45614105665281      -3.92980121739626
O        -5.63421564283831      -2.51546927909770      -0.86116881988104
O        -6.13266055023848      -0.16048071686635      -1.36531756070938
O        -6.33416755798609       0.15002956127279      -4.34431087760612
O        -4.73577096314715      -1.34282503634550      -5.51265629285374
F        -8.38536415158941      -2.48269373434478      -1.17427683667840
F        -7.81203610221038      -2.95019541457612      -3.19681700612084
F        -8.49224292405702      -0.96851177481857      -2.69576738753938
F        -3.59158061011024       1.37691824324543      -4.86345734321092
F        -2.60121495224332      -0.25058100097655      -3.85442700182719
F        -3.87641630039288       1.07286688478992      -2.75033343760029
