32
C8H18BF4N optimized with ADF in AMS.
N         0.44425965056010       0.39191814249517      -0.16135282937510
C        -0.56373435173403       1.35291481914853      -0.78344330679552
C        -0.10108442744675      -1.01579032149648      -0.23492120311464
C        -1.94783139607500       1.23368637737466      -0.17375948121685
C        -1.46640289264719      -1.15457187566520       0.41867417320608
C         1.72081588747555       0.48936766796107      -0.99797247648834
C        -2.47443757366684      -0.19889870499597      -0.21962225825257
C         0.72952983181417       0.77524039959585       1.26219785925044
C         2.94373098224345      -0.13340912402938      -0.36052229812492
H        -0.58325617194712       1.09410903061543      -1.85514666273554
H        -0.14426879380976       2.36215614973676      -0.66776462147534
H         0.64596201150590      -1.67751395828465       0.22520346400831
H        -0.17039459252281      -1.25549426884935      -1.30831077853974
H        -2.60441939280620       1.91383387736564      -0.74136343045947
H        -1.94388410656965       1.61820917794083       0.85994425641007
H        -1.39394104621498      -0.97208132739231       1.50417887734623
H        -1.78480368408336      -2.20335482817044       0.29849491598875
H         1.46883340063424       0.00637051660751      -1.95493898987326
H         1.88474059393239       1.56416574631542      -1.16920258069595
H        -3.44842381164927      -0.27162339480747       0.28965575615820
H        -2.63606739783350      -0.49571207015581      -1.27283752332145
H        -0.21610103397140       0.90250532648821       1.79551394918176
H         1.31243936606010      -0.02984594325671       1.72468925682457
H         1.28651093533583       1.72083199037982       1.26002110580398
H         3.74376776161424      -0.12533565499450      -1.11650284741658
H         3.29755922575394       0.47164917511146       0.48488739802054
H         2.79759692917161      -1.17859825748860      -0.04865911429815
B         1.83769558848777       3.98696324308115       0.00362723567957
F         2.33929997341650       5.27871785125348       0.09866317070394
F         0.62836185040982       3.83084305591304       0.76667969458359
F         2.78486841638711       3.01877903508720       0.49538139711191
F         1.53454460837517       3.63853871111564      -1.35955334979455
