45
C13H25BF4N2 optimized with ForceField in AMS.
N         1.34927663731223       2.27908529887402       0.02482952308830
N        -0.85565184161610       2.43408261995906      -0.21769493382733
C         2.72848767431407       1.87270550859874      -0.23570594400381
C        -2.19230268963436       2.23401693330103      -0.77556275660908
C         3.01107040284496       0.47976705094103       0.34755032522742
C        -2.42919975653743       0.75415900221792      -1.11548881378962
C         2.08684614934323      -0.59141361116970      -0.25445385463921
C        -2.36170305803254      -0.13908119513978       0.13297372510276
C         0.31627298519748       2.18610810999918      -0.83414230535244
C         0.81555976157401       2.60724542278172       1.21895263109696
C        -0.55149189163464       2.71039465316204       1.06704802985621
C         2.45149581071347      -1.99312434088720       0.24426815713764
C        -2.55849118135167      -1.61482678007886      -0.22946391308989
C         1.48200276868421      -3.03649039590211      -0.30649340390060
C        -2.47864918732221      -2.49885234259535       1.01278112691342
H         3.41858362158075       2.61673967696271       0.21539090654369
H         2.92116327510017       1.85886879696003      -1.33104746489555
H        -2.29785579747594       2.84719178394940      -1.69668064746076
H        -2.96471701922458       2.57547332775106      -0.05209834567849
H         2.88178079987763       0.50813839882800       1.45152169465262
H         4.06971648594460       0.21853944737466       0.13071345351921
H        -3.43304770434145       0.65499661765458      -1.58262256938396
H        -1.67198929342896       0.42006751016829      -1.85820875471065
H         2.16234416755816      -0.56499065985738      -1.36385217626647
H         1.03604603489349      -0.37554129155364       0.03419279007654
H        -3.14949778560340       0.17528662025790       0.85215464176661
H        -1.37148804871396      -0.02380935679471       0.62340620809474
H         0.40811511004174       1.86260107980462      -1.86388703620884
H         1.36842883085276       2.70032995852010       2.14449472405612
H        -1.27205067313274       2.89704874227802       1.85251697397305
H         2.41305601367249      -2.01882614160396       1.35501932116331
H         3.48286658638096      -2.24930144058901      -0.08161848714470
H        -3.55094797729289      -1.75512882334965      -0.71013046465836
H        -1.77077985487136      -1.93118214065524      -0.94749850010668
H         1.50751978451127      -3.04014456420782      -1.41687769776026
H         0.44828650670373      -2.81759138794956       0.03279340692304
H         1.76736851758322      -4.04436379518428       0.06121425766859
H        -3.30081992988251      -2.24774584615434       1.71587905320209
H        -1.50413090972804      -2.35891937660894       1.52751631281192
H        -2.57343041593392      -3.56540319354055       0.71871775253980
B         6.58039328322480       3.49096829544750       1.09263069807267
F         5.75580497392070       4.45877196176750       0.45883107801659
F         5.80366615432413       2.34936633318978       1.42494155864834
F         7.13636772750434       4.04494464995786       2.27656934211699
F         7.62721986380012       3.11051837541533       0.21109097941805
