36
C10H17F3N2O3S optimized with DFTB in AMS.
N         0.48436281320303      -1.52284855729515      -0.18543782794880
N        -1.00291566778717      -0.49977496314456       0.98994457991559
C         1.64381661712827      -2.35265533559672      -0.51718670371731
C         2.59965174629972      -1.64285105507334      -1.47621208648328
C         3.17141741797094      -0.35217137370887      -0.88109534778311
C         0.00635785350950      -1.36316112145523       1.04594371350422
C        -0.23669334278449      -0.74155805783396      -1.04820811196131
C        -1.17154323049372      -0.09288880655575      -0.30567656520824
C        -1.70670756047079       0.04247288981725       2.15066645727233
C         4.12688404613094       0.32742219002491      -1.85827350388745
C        -1.43159315362430       1.53633129722750       2.27648701692009
H         2.15105230934926      -2.57474698127002       0.42552844374504
H         1.27759801165522      -3.28419829088929      -0.96154699362356
H         2.09135307581433      -1.43338653330211      -2.42312757019134
H         3.41405367537714      -2.34327704870202      -1.68761209293716
H         2.35538189281681       0.33117644171918      -0.63128404412760
H         3.69998839947165      -0.58859328761064       0.04597302260302
H         0.37863985333778      -1.84432686875217       1.93343704289516
H        -0.03649025558148      -0.70641710622795      -2.10415626311872
H        -2.77610147343314      -0.15714046500279       2.02941450271501
H        -1.33111429332606      -0.48563212281093       3.02979583166286
H        -1.93218218496559       0.61130803363232      -0.59322056817747
H         3.61014681099502       0.59234982349223      -2.78257885156675
H         4.96116985399474      -0.33188570052141      -2.10312510611502
H         4.52425381266305       1.23725745967027      -1.40923366995225
H        -0.35816634568909       1.71020508900493       2.33044958665841
H        -1.89890225228053       1.90324893211555       3.18901854906455
H        -1.83882529559826       2.08004907809661       1.42463157326756
S         2.03530201602217       0.03694352579212       2.65432992031523
O         2.67320164312032      -1.17812079993796       2.16182066940312
O         0.93634185172439      -0.20893975005215       3.57817733888223
O         1.72144196604367       1.00309689164355       1.61240776992952
C         3.33610625121885       0.85263609513376       3.68152699615251
F         4.42432226162761       1.07702116122060       2.95388942012903
F         3.67077863964557       0.08772852970368       4.71211093802424
F         2.89644615061469       2.01621840814857       4.14703969243962
