42
C10H12F18NP optimized with ADF in AMS.
N        -1.49506424521802      -0.13217058579790       1.31765254335682
C        -2.20120657375056      -1.32591689958264       0.73228453963408
C        -2.41455752027293       0.59072941155799       2.26676820419475
C        -1.08855194390252       0.80034165549932       0.20946379033364
C        -0.27676087430796      -0.58991886309592       2.05645056581335
H        -2.53183073783656      -1.97125196700523       1.55541778946297
H        -3.06742611705659      -0.97124873928676       0.16396897139510
H        -1.49397984526699      -1.85824167044293       0.08339563786748
H        -1.87294678038465       1.45216192328651       2.67767430171532
H        -3.30422786543320       0.92249774758918       1.72146245495763
H        -2.69949835198985      -0.10411224069316       3.06671510610648
H        -0.56946491101841       1.65956044043410       0.65259178713634
H        -0.42007745094226       0.25812710281999      -0.47161022787462
H        -1.99371303049780       1.12997502933876      -0.31299860603291
H         0.22402187415534       0.28522886553853       2.49008979261079
H        -0.58476480322257      -1.27930582248976       2.85285677689455
H         0.39428365519377      -1.10009022979688       1.35374931961096
P        -5.68590004644520       1.37238116944903      -0.22271918023547
F        -5.27320556264280       1.81217942859268       1.35094091781966
F        -7.22651550873416       1.91395806487725      -0.00786410578446
F        -4.08325911044859       0.78787791703489      -0.47060042521680
C        -5.05772786275817       3.17762104597475      -0.77627977630877
C        -6.11517269350325      -0.40387888802135       0.59059317123390
C        -6.18729547444830       0.83863666855842      -2.08019839627350
C        -4.20583371993314       4.02397759838448       0.22686487550288
C        -7.46806014793990      -0.56174759672869       1.34652361929778
C        -5.18690843605529       0.10273602172107      -3.02859159223362
F        -6.11059316669523       4.00038227225731      -1.08966796667102
F        -4.25429585552865       3.08123256891242      -1.89630532884273
F        -5.14738484637149      -0.70393834017971       1.55417738856971
F        -6.05398108354066      -1.44889078845436      -0.29896040016102
F        -6.56891539946229       1.96320184722690      -2.77770158897960
F        -7.29915261449095       0.03003119255179      -2.01616597805645
F        -3.76262620921888       5.14757483351897      -0.40170959417928
F        -3.09056373722132       3.34848233009312       0.65054125379023
F        -4.90682539229619       4.41436501038721       1.30830090445283
F        -7.52099882771605      -1.80890726590665       1.90616460260217
F        -7.57906701027438       0.34040701101448       2.34743385393393
F        -8.52620718318235      -0.44229430946040       0.52022705371980
F        -4.11800502083480       0.87292238473536      -3.34183623784693
F        -5.82718623894353      -0.20435147816645      -4.18989910650767
F        -4.71784552996268      -1.05799074654573      -2.50338539520829
