38
C10H20F3NO3S optimized with ForceField in AMS.
N        -0.39940881728383       0.17016825002621      -0.07112517819799
C        -0.97018886134199      -0.87725973874214      -0.97358117372111
C        -1.45498637402054       0.40877719956308       0.96089032705969
C        -2.43378523491206      -1.06427520421894      -0.62076966164486
C        -2.50106115566067      -0.68138934657209       0.83070984117256
C         0.84283041773576      -0.34094708883014       0.59569712703453
C        -0.15064914965353       1.42307521943247      -0.85559083484743
C         2.02285333883581      -0.61262043445139      -0.36870707277690
C         0.45027970613679       2.58131092314892      -0.03782534610714
C         3.17289532789573      -1.30732437940679       0.35523555310885
H        -0.47838043914138      -1.86749361517796      -0.83492775927545
H        -0.87059140899200      -0.62913970065759      -2.05536044674180
H        -1.98232944152395       1.37869614690022       0.80768656701060
H        -1.05745111940394       0.43141323413631       2.00139842597272
H        -2.77046853450554      -2.11167519199161      -0.78390800289846
H        -3.06056853196169      -0.37137629458964      -1.22495004502049
H        -3.51483645087092      -0.32135368345209       1.11271978814562
H        -2.22224334658597      -1.55133594585055       1.46594178434784
H         0.60822837361339      -1.28426175089783       1.14217272075191
H         1.18952237717160       0.37245115557669       1.37602723035404
H         0.52303832968768       1.22341208782227      -1.71727435258264
H        -1.10434634008454       1.78283397174691      -1.30645903282656
H         1.70563462406483      -1.25449354138925      -1.21632211398957
H         2.41100613423497       0.34065463530310      -0.78307222013734
H        -0.15092336750031       2.80090071814360       0.86757011979262
H         1.49527058831916       2.36273243721272       0.26171294245929
H         0.46934560280967       3.49640266271918      -0.66644363506196
H         3.55567221400177      -0.66403606626054       1.17456945167736
H         2.83613076752005      -2.27789456891370       0.77766987148174
H         4.00105967697020      -1.50005887992631      -0.35898850093113
S         4.84868546925889       2.19120614081182       3.45769875003786
O         3.91235582476671       0.98629791445570       3.28695909204334
O         5.82059095617217       1.72725849055836       4.55270488777631
O         3.96774465811073       3.21823718086231       4.18410541956176
C         5.63089597040652       2.78698286329936       1.93493701029008
F         4.65433253281684       3.16488617139556       1.03368599798508
F         6.39902216207530       1.77792417756661       1.38681323959611
F         6.43505368993829       3.87213875934717       2.22621869010094
