31
C11H14F3NO2 optimized with ForceField in AMS.
N         1.09831933914021      -0.02854719409966       0.49042791047189
C        -1.27299839961592      -0.00952525129671      -0.15893744476504
C        -0.27673318131134      -0.03999301333451       1.00385519084793
C        -2.71844376419002      -0.01329882136865       0.34892502824678
C        -3.70726897631047       0.00545243062883      -0.81309224037730
C         1.70966939258197       1.16465544497301       0.21822795304990
C         1.75032674991589      -1.20958164049708       0.26185473840783
C         3.01324263156624       1.19607634149998      -0.28288594700740
C         3.05326039592969      -1.21416900741387      -0.24231493487839
C         3.68699344531240      -0.00230891129280      -0.51294991732818
H        -1.10417058990147      -0.89957616727165      -0.80436491394224
H        -1.09691125239916       0.90497834982169      -0.76705666333872
H        -0.45025058042460      -0.94932195378720       1.62213064219018
H        -0.44338205672478       0.83708326992943       1.66895606813631
H        -2.89936814428823      -0.92387393140991       0.96092806020033
H        -2.89439253962855       0.88065637184389       0.98639581496077
H        -4.74535707967800       0.00279148328633      -0.41934410978946
H        -3.56232065646524       0.91943605142967      -1.42776839159713
H        -3.56730448635146      -0.89227975068608      -1.45241486298351
H         1.18765961059738       2.09966450984165       0.38442191092440
H         1.26075457750515      -2.15590412227504       0.45966693484269
H         3.49416521650674       2.14247221260231      -0.49450855946545
H         3.56445320770914      -2.15043802909014      -0.42586662771406
H         4.69564552472604       0.00794276196847      -0.90562550955410
C         3.69826189915605       4.89539569388278       3.74500251172865
O         3.40089781946710       5.13945105757452       4.90354612225679
O         4.87412074636076       4.84311665498897       3.42227537918371
C         2.63101107294911       4.65317234297472       2.71984454619384
F         2.77281071891871       5.55431207129231       1.68059674639976
F         1.37336654912919       4.80388523688683       3.27835523163305
F         2.75356705271745       3.36828206969793       2.22733374056618
