42
C10H12F18NP optimized with DFTB in AMS.
N         0.83754719740926      -0.02579616269390      -0.03767312360365
C        -0.61294380449794      -0.27454689238444      -0.24770471423620
C         1.06334749219759       0.44464218654408       1.35714503019476
C         1.30020665285315       1.02215567638773      -0.98965560667635
C         1.58568371855073      -1.29417441327164      -0.26975307693520
H        -0.94607344907945      -1.03781754703932       0.45303247551784
H        -1.16094708139063       0.65019985588636      -0.07694481160651
H        -0.76863157720603      -0.61500460022386      -1.26970949817501
H         2.12014051966146       0.66212088757044       1.48655737088399
H         0.47353240058265       1.34356254711843       1.52564156705130
H         0.76117884862419      -0.33860151501411       2.04926087603248
H         2.34453258011075       1.24601633918754      -0.78858859188099
H         1.19308774123867       0.64970419516322      -2.00621947298116
H         0.69494404739203       1.91578413928569      -0.84999858952594
H         2.64415494366190      -1.12297437569574      -0.09750850767940
H         1.21765121732212      -2.04996676644861       0.42121122773030
H         1.42573255550365      -1.61431793576667      -1.29732711624437
P         6.73308699344937       0.52380465367053       0.77568890097403
F         7.43378623436418       1.24844246998011      -0.54461477387010
F         6.25866948166612       1.99973739886223       1.41545871252534
F         7.06451756907672      -0.99027317599462       0.12534027829784
C         5.09827667628718       0.63518609636760      -0.34975790968514
C         8.50261290891288       0.65407676730327       1.67425057556409
C         5.91179811094050      -0.45218037499828       2.35738373923821
C         4.92535281813462      -0.29091279554980      -1.57784380182107
C         8.65241542748631       1.14136937322520       3.15176895634420
C         4.60920538170783      -1.30474518386807       2.41007064261537
F         4.94451336641611       1.88262622800862      -0.82466097623031
F         3.97425866710240       0.41472037358705       0.41231735678810
F         9.23777277719418       1.53248906426182       0.97068529433491
F         9.13315954210094      -0.52908621989719       1.60204837812449
F         5.78417325620686       0.42023233836229       3.37915700826986
F         6.88249247071477      -1.32568654551715       2.70151149975048
F         3.74996524995949       0.01988576600604      -2.19173559346137
F         4.82268782542353      -1.57310942884667      -1.23749670913179
F         5.88524230541908      -0.15546639732750      -2.46860048767414
F         9.92522143495818       1.49381662908185       3.35664840454846
F         7.89769649840149       2.20593256947452       3.40898540747189
F         8.35883206981631       0.19696215838822       4.03834552986713
F         3.52949866992037      -0.54543525363028       2.67347737256646
F         4.67504584305578      -2.22042048839261       3.37048429216126
F         4.35421677995058      -1.95117332686239       1.26587316806592
