60
C18H36F3NO2 optimized with ADF in AMS.
N        -0.08471059346770       0.19471056196621       0.11097845880033
C         0.80223512298489      -0.81071007359772       0.82771414775480
C        -1.05279356016924       0.80963105614027       1.12610290758651
C        -0.83348857310379      -0.51427883569061      -0.99626201394359
C         0.75860229302983       1.31928872115085      -0.48453187769584
C         1.75211881540318      -0.22416496778898       1.85571641905445
C        -2.21972405076954       1.57952412872713       0.53627947114692
C        -1.77537601208860      -1.62198840395178      -0.55002285281814
C         1.72360442911133       0.92360932239233      -1.58682343144612
C         2.46077090313536      -1.34112566694547       2.62589509095706
C        -2.99143655990945       2.25671623516997       1.67353318943479
C        -2.56943106283066      -2.15741355266228      -1.74452744249144
C         2.63990820915227       2.11553147443693      -1.89300615887664
C         3.41959605996251      -0.77356901647219       3.66899882555040
C        -4.14657512054861       3.09992244324568       1.14458731635970
C        -3.50615295101349      -3.29548065325335      -1.34922429923815
C         3.60068916302687       1.81992472721622      -3.03809831829886
H         1.35629888276078      -1.35345635434532       0.04565386116916
H         0.11815601148276      -1.52257962677596       1.31111475853070
H        -0.46291390091581       1.52278446704597       1.72052233619924
H        -1.39888240163749      -0.01937371556478       1.76272656901089
H        -0.06981997075171      -0.91942077292740      -1.67471558279103
H        -1.38365844249055       0.26921480907400      -1.53889502150782
H         1.30975735581785       1.76082571810949       0.34952439818462
H         0.05904269146606       2.09830004690415      -0.81412704044121
H         1.21257861218538       0.41637208972983       2.57085290723157
H         2.51108433081962       0.41184092996138       1.37432999034017
H        -2.90081864444188       0.93048716804604      -0.04183043237659
H        -1.83896498839387       2.38059173521734      -0.11738336556031
H        -2.48186885702190      -1.25283129970738       0.21152118754388
H        -1.21167522263893      -2.45494290545219      -0.09714375651126
H         1.19053226449118       0.63079299493444      -2.50849166954561
H         2.34960706005055       0.06489363925060      -1.28269597040095
H         3.01295479154533      -1.98858853629829       1.91978040032369
H         1.70976309625887      -1.98459105720635       3.11996598911948
H        -2.27946725801308       2.90114012895338       2.21470143737317
H        -3.36924920029692       1.49338697818179       2.37903640304527
H        -1.87055383929991      -2.50636257097977      -2.52637715358962
H        -3.15356712797927      -1.33354930120449      -2.19215880445725
H         3.19127654529977       2.39418026823419      -0.97994798761095
H         2.02400633817039       3.00136286461085      -2.12229009493433
H         2.87980335983051      -0.14358664368374       4.39269566088022
H         4.18672732553114      -0.14223299895566       3.19478867015929
H         3.92724641470370      -1.57792218865601       4.22118009117719
H        -4.87432582372693       2.48978246693088       0.58399395756740
H        -3.76654913089896       3.88619216361033       0.47326980346992
H        -4.68156660996403       3.59382903680141       1.96932618114923
H        -4.23195841871051      -2.96393460736183      -0.58949306232303
H        -2.94333645170364      -4.14448314017643      -0.93003439606541
H        -4.07139417473455      -3.66116116419334      -2.21881669869261
H         3.05685716477032       1.59622112713856      -3.97075675400344
H         4.24367452605228       0.95385997515424      -2.80940680368214
H         4.25517596769313       2.68393322322273      -3.22704959360010
C         1.02879978706991       3.84565605879569       1.40045008432108
O        -0.21681929536824       3.67303530177962       1.37452059136971
O         1.84111224588992       4.15826584647988       0.50660605246897
C         1.69920882999336       3.55078660371530       2.79446107871506
F         2.88094993453731       2.85390858709644       2.65929164456690
F         0.91515813842266       2.77300589475852       3.62646779645028
F         1.98657338144022       4.69207721016868       3.48654165809040
