46
C12H28BF4N optimized with DFTB in AMS.
N         0.40829932141424       0.27915955359511      -0.19323479122916
C        -0.27693962442557       0.91942031671489       0.98996174932089
C        -0.54150016360046      -0.55451788512517      -1.00362177022087
C         1.50327253949297      -0.61881556116964       0.32211602673988
C         0.96611702031389       1.37655295013273      -1.06221810236280
C        -1.02961851686134      -0.03704637404038       1.91113812735536
C        -1.78910629889154       0.16980325292652      -1.50839888545214
C         2.41897311425818      -1.23775893212837      -0.72986900716147
C         2.06168489174442       2.22821467395298      -0.41963085732048
C        -1.47544698733873       0.73898844097844       3.15086376189096
C        -2.66224978810487      -0.81476969147383      -2.28668512039732
C         3.56968968665948      -1.93127976708519       0.00282565239816
C         2.59701084825041       3.21582158806176      -1.45492745699993
H        -0.95597718715144       1.68048486106889       0.59761899990392
H         0.50518908852679       1.41454145139493       1.56754839131902
H        -0.83513950845457      -1.40124899116577      -0.37847696397078
H         0.02195977453853      -0.93924266135619      -1.85730164833871
H         1.02211559959066      -1.41127863466520       0.89670572117895
H         2.10235409179152      -0.02060614650228       1.00729411663519
H         0.12611725169425       2.02044093290170      -1.33471116439456
H         1.34020032822491       0.90505102647431      -1.97507403861964
H        -1.90047007197201      -0.46932947478169       1.40856236426141
H        -0.37322400203789      -0.84667551766384       2.23475378215485
H        -2.36554570657443       0.57382693033430      -0.67338185677102
H        -1.51348213777362       0.99861427518174      -2.16519869434781
H         1.88189235227575      -1.96475787463395      -1.34732821220274
H         2.83444253138093      -0.47181735128942      -1.38901306530439
H         1.66354906957451       2.78016809244919       0.43348250523379
H         2.88302380098893       1.60813870762449      -0.05657100068420
H        -2.04154665958474       0.08214469815209       3.81055663457651
H        -0.60034966197412       1.10579006681101       3.68684622480862
H        -2.10440514238685       1.58615273880740       2.87380905330992
H        -3.55259834640380      -0.30476384692300      -2.65266960855919
H        -2.11722810143430      -1.22017407335421      -3.13981162648572
H        -2.97249538199227      -1.64069993031048      -1.64590490996031
H         4.26880171188711      -2.35228309628350      -0.71907984574199
H         4.09643942827151      -1.21263044062095       0.63140934250949
H         3.19085456829150      -2.73464441250375       0.63509372635427
H         3.33528359602106       3.86377438395057      -0.98436934100824
H         3.07206201697930       2.68864943042997      -2.28369244455133
H         1.79152180746425       3.83631435056874      -1.85117215135734
B         2.61054644660507       1.17129606344737       3.02783992041831
F         3.22629658508906       1.37350951197423       4.22571024130759
F         1.93543607592646       2.33283082207827       2.57550500666681
F         1.63359378521156       0.13908069321719       3.10748228453704
F         3.53177174189535       0.79596388064798       2.01533980826116
