55
C15H20F18NP optimized with ForceField in AMS.
N        -0.39847372213844       0.16168642971233      -0.07074299605921
C        -0.96455863774460      -0.89584763964568      -0.96380072805309
C        -1.46016154386399       0.41147816104506       0.95210611519440
C        -2.42995637382778      -1.07737933044451      -0.61675606554009
C        -2.50209624089298      -0.68291642365064       0.83051606142001
C         0.83973877278337      -0.34131164994288       0.60949467537601
C        -0.14559811268965       1.40546176413195      -0.86821806497623
C         2.02954683649577      -0.61278535322277      -0.34249043650153
C         0.45807961631005       2.56968785380401      -0.06186213464180
C         3.17112560052086      -1.30954751442851       0.39334137307114
H        -0.47335134808651      -1.88419497240412      -0.81043959018457
H        -0.86110439007266      -0.65921010242237      -2.04787878708718
H        -1.98918003795176       1.37798004142086       0.78219976587836
H        -1.06906919563655       0.44715182449455       1.99466135747818
H        -2.76869754165272      -2.12514729442560      -0.77258739578905
H        -3.05208480661267      -0.38694718091149      -1.22860576997160
H        -3.51760063900152      -0.32412550843820       1.10742158036620
H        -2.22018756071432      -1.54649434187252       1.47313236539526
H         0.60376263411961      -1.28232121540970       1.15938455273049
H         1.17697939874281       0.37874149473897       1.38805802809420
H         0.52902193884671       1.19466295625568      -1.72670689439090
H        -1.09796635050435       1.76350596273946      -1.32305321548934
H         1.72057978652770      -1.25192193384679      -1.19523501996507
H         2.42353212313690       0.34097068408867      -0.74975619677858
H        -0.13190237282255       2.78621813855846       0.85161737584088
H         1.50814410519661       2.35687117222078       0.22330259106553
H         0.46336723181423       3.48369910484927      -0.69221293804624
H         3.52541850082952      -0.68137402764496       1.23820286591191
H         2.83547294324264      -2.29410797854705       0.78271796147685
H         4.01804106805011      -1.47538907628639      -0.30533859039757
P         9.53291883960215       0.12648780925549       0.91417533347948
F         9.41331485440476       0.01813942101551       2.62786698018121
F         9.66085312917932       1.76102689413916       0.38274641853343
F         9.72280745073045      -1.55807684289566       1.20767996115564
C        11.33882853012937       0.59844757533393       1.44047185995730
C         7.68809623472931       0.51407944666045       1.35400757160338
C         9.40573847740074      -0.60305844970612      -0.87111884604458
C        12.14026221884107      -0.43878370975047       2.27349323242410
C         6.76738640463566       0.96044232893701       0.19857556777188
C        10.71278403195787      -1.09582678467473      -1.52258388632304
F        11.29728026765389       1.75868348213841       2.20423942137075
F        12.08607113725938       0.89022116897245       0.31689682565816
F         7.63729162310145       1.54023376423047       2.29315038316656
F         7.11458698867213      -0.61778109703717       1.91602755096416
F         8.91008908106799       0.37474461797464      -1.71493632321864
F         8.50129294242326      -1.65612641269112      -0.88536346516576
F        13.44108783192815       0.01347588677763       2.40928450918862
F        12.18982342808823      -1.67612964044638       1.66872689009278
F        11.61556814220139      -0.58296031304112       3.54525946907985
F         5.54872175651298       1.34918630544580       0.72750493697809
F         7.29344541183150       2.04200737760962      -0.48278607677928
F         6.52163750839679      -0.07357819998372      -0.68204099359104
F        11.50617076921783      -0.02848319301811      -1.89791316506785
F        10.40178584746797      -1.80371156385389      -2.67030249433265
F        11.42261909506252      -1.93453361130794      -0.69282422020993
