39
C9H20F2N2O4S2 optimized with ForceField in AMS.
N        -0.05661802791305       0.25250196452596       0.16025290287950
C        -0.98034137665087       1.24028660129863      -0.48375427842359
C        -0.49059705257007      -1.14398849565935      -0.15406585803574
C         1.30676043331486       0.50364978676317      -0.41644308728051
C        -2.47203302417558       1.00582622070458      -0.18151431229441
C        -1.96778902816338      -1.42018846268494       0.17470993330338
C        -2.88001552264337      -0.42156053032738      -0.52841376669335
C        -0.02043029051570       0.47840079515992       1.63096938652579
C         2.44504390957155      -0.38033101378916       0.14771233379648
C         3.77248323753030      -0.06776158298455      -0.53915069666726
H        -0.86695322035820       1.20824411971069      -1.59267660377416
H        -0.72171806632172       2.27784399560756      -0.17045196885948
H         0.10851947468318      -1.88508144023028       0.41775168541832
H        -0.33332697828596      -1.36250668668654      -1.23545063983450
H         1.59567502279444       1.56830389840855      -0.25350760979550
H         1.28326626581055       0.35483745687283      -1.52124088896062
H        -3.07754962736367       1.70929110372352      -0.79331407460928
H        -2.70767558513280       1.22572068091894       0.88022631332059
H        -2.13734960875049      -1.38533207200368       1.27188156334658
H        -2.22772281162206      -2.44616803074283      -0.16520053919138
H        -3.93167715576248      -0.59385060363469      -0.21326207182332
H        -2.82034322432462      -0.57094155971788      -1.62911071262794
H         0.55036084313729      -0.31892077339383       2.15223948483895
H         0.44246843753233       1.46092563178062       1.87331280020302
H        -1.02987383371080       0.46887458959806       2.08497336945609
H         2.58122466181654      -0.20415684558572       1.23427117775603
H         2.22748372298375      -1.45233482561881      -0.01918287971675
H         3.69925502669000      -0.26047829023382      -1.63071413291612
H         4.05470074550143       0.99335719745877      -0.37100382952265
H         4.56962741696916      -0.71709052450240      -0.11903054386743
N         1.33819545076492      -5.81176026103967       0.13428598295230
S         2.41562131803328      -5.12706907521733      -0.88869833199208
S         0.80234435088886      -7.34039899897158      -0.09337814851382
F         1.61787032983410      -4.64170732082189      -2.27812028380648
F         2.02692653012700      -8.41406682642086       0.29437589432096
O         3.04374747908418      -3.93256075123588      -0.22992415707208
O         3.48245809292078      -6.12005306309328      -1.25725822526815
O         0.41483659294603      -7.54015298368898      -1.53210249456591
O        -0.38493130026969      -7.59438046644644       0.79166705139450
