53
C15H32BF4N optimized with DFTB in AMS.
N        -1.03365383420770       0.73790539726097      -0.10805181593214
C        -1.47023922869920       1.73707944535008       0.93104115009790
C        -2.04308503516474       0.72405358232985      -1.21454181769399
C         0.26975904948947       1.20927161996628      -0.70358921779297
C        -0.87983793733388      -0.61508474014432       0.52728087384302
C        -2.86956242396409       1.46937355670100       1.46502127308067
C        -3.45062486523490       0.40168233377654      -0.72366390794494
C        -3.89690396064781       1.40708312780866       0.33752960246934
C         1.46330608718059       1.18636704200101       0.24887960630593
C        -0.42683448773701      -1.73287346808140      -0.40551728258255
C         2.68758773022893       1.77930365643756      -0.45663607515322
C        -0.10723474359462      -2.96360661238898       0.45430862608722
C         3.90266639528347       1.75849067141004       0.47654239482589
C         0.41098351661466      -4.12070736843305      -0.40382634134675
C         5.13578351967064       2.35035148585215      -0.20269357395421
C         0.73863213285913      -5.34037882558078       0.45575590024051
H        -1.42785027751276       2.72200068899057       0.45680498419714
H        -0.75252356163946       1.69616146948832       1.75179253827925
H        -1.71679035876033      -0.00561428048795      -1.95836920396560
H        -2.02867338764094       1.71800961274961      -1.67147744990127
H         0.09513331972644       2.22970918579055      -1.05756512132624
H         0.47138592352024       0.58101214487653      -1.57540991664830
H        -1.83408491298580      -0.87741959447243       0.98230212477754
H        -0.15406569887251      -0.49841967677075       1.33082279846141
H        -3.11452161909870       2.28955887043566       2.14455399980224
H        -2.87721999065139       0.54829034578388       2.05155340780825
H        -3.49342558474828      -0.61490389621536      -0.32524249786645
H        -4.11839232212459       0.44823180019727      -1.58828905617764
H        -4.00347482707595       2.39577142098471      -0.12188610268337
H        -4.87006303751269       1.11108841164055       0.73609122200978
H         1.25119797607531       1.76611550386426       1.14863899051536
H         1.69089908975600       0.16480712321868       0.55960349403453
H        -1.20600736841382      -1.98359440532462      -1.13255196323556
H         0.47169614577555      -1.44365350766227      -0.95682694901536
H         2.47422686524792       2.81045610645979      -0.76043504140561
H         2.90761688276189       1.20249625531536      -1.36245675588122
H         0.64505368117756      -2.69042224633148       1.20097685614966
H        -1.01007088165469      -3.27641429914616       0.98863816700408
H         4.11027020533596       0.72661925897344       0.77662998786824
H         3.67307510569413       2.33005787590904       1.38097579750309
H         1.31076635815784      -3.80104998885366      -0.94080546963077
H        -0.34500974510332      -4.39101225416190      -1.14963695785652
H         5.98467511296558       2.32489693869760       0.48056979462554
H         5.39242817599328       1.78016539958328      -1.09699253194669
H         4.95405071912047       3.38653434356892      -0.49225669292780
H         1.10857857152303      -6.15160801848109      -0.17161151901924
H         1.50373617736762      -5.09249570220431       1.19217817119173
H        -0.15143034082355      -5.68597782775595       0.98309557231896
B         0.33188044277977       0.26526026853213       3.58423517945537
F         0.59320781740342       0.07297718717791       4.90759942472829
F         0.58077627145226       1.60174002259063       3.18342038374046
F        -1.03127271735563      -0.00690310895510       3.27363899541854
F         1.12200552339726      -0.57635078257128       2.76134002164846
