51
C13H24F6N2O4S2 optimized with ForceField in AMS.
N        -1.38154068038063       0.17969818543147      -0.06729738985712
C        -1.66006291975909      -1.00929257474520      -0.93083919259665
C        -2.47425792906462       0.18045533503442       0.95321789322072
C        -0.06023025665163       0.02206193415211       0.62359793956808
C        -3.03031192088372      -1.54935461056211      -0.56868474859901
C        -3.20032482634440      -1.14731368667749       0.86913731778815
C        -1.44882947713770       1.42411113544934      -0.89930112096739
C         1.16863816503574       0.01845231712031      -0.31829260246085
C        -1.18141116444812       2.72878471844603      -0.12879521305865
C         2.43769770758769      -0.35628423855644       0.45920737502548
C         3.67626258022374      -0.33691523307116      -0.44367887249167
C         4.93196614533667      -0.71696858453567       0.33791086869839
H        -1.62108446289433      -0.78166890796890      -2.02110646856668
H        -0.93360808576556      -1.83615827073206      -0.75770811658530
H        -2.10829316373489       0.34650110429825       1.99261933258276
H        -3.23251232718481       0.97322802262908       0.75748116859314
H         0.08496014855892       0.82823207403635       1.37650761069309
H        -0.06033027936834      -0.92817654209334       1.20745757449689
H        -3.80835576561289      -1.05727818672092      -1.19384864310103
H        -3.08841983747306      -2.65225138914921      -0.69646667558750
H        -2.70563563561158      -1.89173281821666       1.53194142226080
H        -4.27292235676684      -1.05136163943224       1.14580564904446
H        -2.45396246091462       1.50921349357862      -1.37336912087005
H        -0.73000653771520       1.37172623123222      -1.74330348304822
H         1.31141799213661       1.02811189602478      -0.75741783897105
H         1.02848410769444      -0.70552834351104      -1.14817757559670
H        -1.85096169864941       2.83292122560414       0.74874988510371
H        -0.12572987788848       2.79046033952489       0.20349504378535
H        -1.36745396467890       3.59007446093915      -0.80506255060445
H         2.31592392290663      -1.37492847870995       0.88946630947091
H         2.58125711475840       0.36510523110559       1.29382458605164
H         3.54191839328143      -1.05686477696478      -1.28020901622994
H         3.81284884026219       0.68017156208800      -0.87135207433261
H         5.81432474099620      -0.68725594652181      -0.33554040241974
H         5.09958377576029      -0.00303140158076       1.17257417412728
H         4.83531039321144      -1.74444001396524       0.74949005797463
N        -0.34558077903031       2.94816540895048      -6.18683031700975
S         0.52673211455038       1.56294814719225      -6.28872358116264
S         0.12693928405446       4.35605404622110      -6.88361839326846
C         1.62790080114112       1.45836899659776      -4.89260265071763
C        -0.72001506348559       4.55069674452711      -8.43793338386625
O        -0.40773032767248       0.38654811483392      -6.25553001758476
O         1.32617400762512       1.53212343642993      -7.56171002713129
O         1.61236475867015       4.36554753973106      -7.11594081292171
O        -0.24694190377831       5.50150977119555      -5.98571327701927
F         2.34959643005203       0.28167768011593      -4.95460171446056
F         0.89282699690747       1.48074632708800      -3.72432086339161
F         2.49787500213344       2.53109577068300      -4.90515993436496
F        -0.31848239856817       5.72594800971249      -9.04408094644247
F        -2.08359622492701       4.59259931641315      -8.21792101260271
F        -0.42194577899388       3.48412888292851      -9.26367319229683
