34
C12H16F3NO2 optimized with ADF in AMS.
N         2.24874960590591      -0.03936321474338      -0.40882858641321
C        -0.06536096370811       0.24975105973536       0.44334253456560
C        -1.53023553496321      -0.10919308485660       0.21649732985637
C         0.82444846329694      -0.36073889394312      -0.63331313834645
C        -2.43533984028572       0.47101486490789       1.30194934573800
C        -3.90590739090910       0.13106257860266       1.08142546478710
C         3.06691019372503      -0.96066888053016       0.15464488564631
C         2.67157846685829       1.23200066096791      -0.64762007198201
C         4.40935593489546      -0.64084733381187       0.38262639103560
C         3.97547783806900       1.58899336973290      -0.41577223736265
C         4.86661666829989       0.62801943965991       0.08992490256187
H         0.28768212952286      -0.11465887520323       1.42261446959581
H         0.05176910007353       1.34871581522509       0.43910205321914
H        -1.64226250059455      -1.20969909843340       0.20169087374473
H        -1.86315793046296       0.25462448016358      -0.77490197694962
H         0.73860112307035      -1.45661394490281      -0.63011447221383
H         0.56176285390552       0.00126759404450      -1.64086472691080
H        -2.30456004140527       1.56798264056027       1.33203587399315
H        -2.10068792213148       0.09122781270720       2.28337894410858
H        -4.26076697613650       0.52450322888132       0.11505606528664
H        -4.53943165890350       0.55838352033053       1.87349452043643
H        -4.06072051160354      -0.95974509711457       1.07741190514721
H         2.67454450831757      -1.96417575481791       0.26147710674462
H         1.92174910829185       1.91589342813712      -1.03923850729443
H         5.05681973938782      -1.39940154252229       0.81440435089563
H         4.29730949274391       2.60700097800279      -0.63095140270543
H         5.91198265519646       0.88776708373538       0.26092790584119
C         2.92915209492836      -0.85555484948406       3.16733231392534
O         2.06179692836197      -1.13029052847229       2.27855143359960
O         4.16863573772514      -0.91248470919024       3.12978537112669
C         2.28859872332726      -0.32105831207221       4.49363422073344
F         3.11153493891259      -0.44102842497562       5.56697119659038
F         1.12092570999739      -0.96022676605733       4.80525719413085
F         1.98940626489083       1.01672571043669       4.35874924566815
