38
C12H19F3N2O2 optimized with DFTB in AMS.
N         0.88559895624077      -1.42895652530750      -0.78902881864769
N         2.52016212401437      -0.21303402734293      -1.48284681479101
C        -1.31236900559367      -1.97944588217189       0.17978437803724
C        -1.92004541561955      -0.61436280939652      -0.15909328778972
C        -0.22455679526379      -2.37593758969031      -0.81407671628387
C        -3.00760843797580      -0.22476034085860       0.84646188793726
C        -3.61146440608032       1.14227431145258       0.50936370822997
C         1.38713976038192      -0.80664684364563      -1.85317410628581
C         1.73545632603946      -1.26369455803453       0.27124156578444
C        -4.69433392833066       1.53542814345989       1.51272914722420
C         2.76790344563556      -0.49815626944745      -0.16728997803138
C         3.50817271114884       0.34143188999436      -2.39178463881257
H        -0.89649358504654      -1.95930416558842       1.19142840443765
H        -2.08927656135697      -2.74838112319650       0.15167310405124
H        -2.34653593883753      -0.64647343595438      -1.16765845759439
H        -1.12969537978421       0.14472587163313      -0.15584959981349
H        -0.61233568842489      -2.40482842345849      -1.83472344769467
H         0.20488749018699      -3.35378147208043      -0.56949708678836
H        -3.79633361738843      -0.98460418625911       0.84156257491003
H        -2.57760004172055      -0.19664198873520       1.85357780872894
H        -2.82018194349683       1.89989444698444       0.51157522738768
H        -4.04152769999187       1.11144677022372      -0.49748749218928
H         0.96543952924781      -0.80495176968997      -2.84325945764571
H         1.56119318258172      -1.73587962824792       1.22087775414892
H         3.66430590969353      -0.16840479021982       0.32586702197984
H        -4.27970698923429       1.59194567105806       2.52014370074463
H        -5.10904137105457       2.50940686112541       1.25242986414723
H        -5.50165818236961       0.80189929866755       1.51049541711859
H         4.26605831665782      -0.43100140513930      -2.54884660821488
H         3.02820187357884       0.59177743727000      -3.33555984834336
H         3.95814929792296       1.22671742017821      -1.94539224676044
C         3.22738212655817      -3.15924728061729      -1.48201267151979
O         2.50432851080643      -3.68463646977959      -0.64534346116297
O         4.20973624160859      -2.43174122451456      -1.40820134858707
C         2.68396523860713      -3.35131907795943      -3.02237774100633
F         2.95166246483331      -2.24050026401562      -3.76298320429990
F         1.32842636673422      -3.46451718105437      -3.04596009872589
F         3.17248126239163      -4.39424608214164      -3.69806398287925
