33
C9H17BF4N2 optimized with ForceField in AMS.
N        -0.07986474151798      -1.28381742583550       0.28819052891935
N        -2.09735991684948      -0.35531987024474       0.18657953604397
C         1.25863855684960      -1.63233802141866       0.76116102612878
C         2.33642663875014      -0.88667227412538      -0.03678588296819
C         2.22785219597130       0.63503160751838       0.14050142083997
C        -0.99810062848134      -0.54511059140961       0.94173491877319
C        -0.62091084813067      -1.58079765766810      -0.91136224306421
C        -1.87234081575528      -1.00360192108381      -0.97462326188255
C        -3.26934133976522       0.44449947729586       0.53183963395960
C         3.34265414071277       1.35967264865631      -0.60666492014135
C        -3.27649393255092       1.74405843196003      -0.26555636560402
H         1.35868097133652      -1.38263618051385       1.83988998448032
H         1.41057873694777      -2.72811644772941       0.65474346823764
H         2.24757266347586      -1.14720274899085      -1.11388170552334
H         3.33386926694632      -1.22737798296517       0.31752682130911
H         1.25014783151140       0.99270042592119      -0.24982637592666
H         2.29176965010339       0.89321093441008       1.22006558106264
H        -0.85405131644089      -0.12411004926077       1.92967858373155
H        -0.13603902029691      -2.15649650392082      -1.68893166140010
H        -4.19278079446221      -0.13580675958923       0.31823712649028
H        -3.25763991780360       0.68796772414508       1.61715302372819
H        -2.55876208927241      -1.04055456076999      -1.81085459088568
H         3.29083504405746       1.13397587626244      -1.69340726788860
H         4.33439483253487       1.05024271900441      -0.21311169001888
H         3.23152151756662       2.45609628270598      -0.46698060775688
H        -2.35044109125915       2.32251578914049      -0.05925660538631
H        -4.15495057980135       2.35678200085098       0.02633431040002
H        -3.33500291750229       1.52821376316829      -1.35336438626009
B         3.73924936420959      -2.24121420307836       3.77101585999490
F         2.59760191180236      -2.40845583405753       4.59927232321514
F         3.77597120154163      -0.90952562615910       3.27849650705441
F         3.66938460740127      -3.14820207736919       2.68031320109168
F         4.91404579097082      -2.49902128904945       4.52643484704613
