37
C11H24ClN optimized with DFTB in AMS.
N        -0.33115040108270      -0.07563661656269       0.02662607786386
C        -1.06328421143901       0.79789190921423      -0.95467030340485
C        -1.07710392886974      -1.36830967787972       0.17097662024991
C         1.01821187899652      -0.35328200149089      -0.58912626338492
C        -0.20290698891919       0.57780716607310       1.37701987713886
C        -2.50908860831235       1.05284244553239      -0.56176871739727
C        -2.53636731220230      -1.17752847280130       0.57430656890735
C        -3.26759326397431      -0.26542772231575      -0.41065610218116
C         1.98407483827231      -1.16107586145547       0.27134144879426
C         0.65387144461678       1.83310129481759       1.41641704354205
C         3.34474335935666      -1.25562058728426      -0.43857670101272
C         4.11003398181739       0.06694041522284      -0.42728872596143
H        -1.03085644869960       0.27621872244648      -1.91510620113226
H        -0.49523077241971       1.72895908277069      -1.05632296983332
H        -0.55640738066341      -1.97521388242052       0.91453626166168
H        -1.02453620941231      -1.87439927968999      -0.79690834942908
H         1.44284994918126       0.62507301321972      -0.84269699811173
H         0.82394891786176      -0.88866601042826      -1.52227263860710
H        -1.21201510807973       0.81983910700789       1.71419074103546
H         0.20295755771744      -0.17826274398889       2.05433429138176
H        -2.96127793542232       1.65043717316312      -1.35715603532111
H        -2.57087412632994       1.63392258787906       0.36200209975689
H        -2.60462133689117      -0.77113311665534       1.58697454307314
H        -3.00435626770156      -2.16582250852155       0.58339141017290
H        -4.28199881799224      -0.07666834328986      -0.05130426970772
H        -3.33733798196083      -0.76166769793701      -1.38401587308004
H         1.59877983735218      -2.17269002826562       0.43570169428922
H         2.12939956523310      -0.69328564697597       1.24814902555870
H         0.60374785062751       2.22761417704486       2.43169959524074
H         1.69305384972495       1.62363645152351       1.17747761563503
H         0.29271533855958       2.59379323931175       0.72894672958824
H         3.19262271914487      -1.58724831660647      -1.47103224502398
H         3.93882739476765      -2.02185140793703       0.07025856318293
H         4.25029694941947       0.41672000046730       0.59641085937006
H         3.57987152405667       0.83754809342199      -0.98721403592899
H         5.08959185602339      -0.07738267307789      -0.88294580543052
Cl        1.48281926034302       2.65930971326795      -1.60198493769484
