56
C16H19F18N2P optimized with ForceField in AMS.
N         0.39266878517275      -1.52469013528204       0.19069186124123
N        -1.73577176964557      -0.88747123511657       0.11033121952915
C         1.77360961010587      -1.67668202189799       0.64446931908401
C         2.71801738668339      -0.76915243372083      -0.15440564446273
C        -3.00697282718087      -0.26454853931433       0.47481048768924
C        -0.61216478169256      -0.91940280089342       0.85273805322826
C         2.39386168286220       0.71698963770090       0.05480771802001
C        -0.11542772205449      -1.90071956634880      -1.00020188130484
C        -1.43589062504724      -1.50422938690527      -1.05105893828479
C        -3.30098883004190       0.95290446470831      -0.41065160427938
C         3.38296322563402       1.60785113557176      -0.68987500015039
C        -2.24012206526476       2.04257176749942      -0.25998541574605
H         1.85056903219901      -1.42981818498144       1.72648600570121
H         2.08456680923206      -2.73628848349062       0.51980464017257
H         2.64963674953734      -1.02069779979606      -1.23546997185224
H         3.75998924596033      -0.96820292646585       0.17876213586494
H        -2.98651993774448       0.05162312963797       1.54132683665736
H        -3.82389157511942      -1.00924995100068       0.36146105999648
H        -0.51719767534162      -0.47896346281930       1.83783138561004
H         1.37010129736312       0.93750898660180      -0.31728879574875
H         2.43439412117994       0.96158401148248       1.13869422595216
H         0.43745440119065      -2.40820565386390      -1.77983733789717
H        -2.11892912612393      -1.63842825183208      -1.87980179494084
H        -3.36056259103226       0.64076296853098      -1.47558838441807
H        -4.28875729720878       1.37301937269353      -0.12261938418970
H         3.34937453034253       1.39472528939389      -1.77956293420915
H         4.41411735344153       1.43812798932825      -0.31334199777894
H         3.11686730355093       2.67372626744379      -0.52791111070375
H        -1.25605114514585       1.68149359711621      -0.62727584108345
H        -2.14593812445719       2.34695492633396       0.80419436826128
H        -2.53275497026402       2.93019236418719      -0.85916589692030
P         0.11515081373192       0.30002896540648      -7.03158687489323
F         1.26149683313530       1.42654572190934      -7.65688848589060
F        -1.28487982006336       1.16977934282615      -6.52823828128179
F         1.42470567457361      -0.56721219379753      -7.73405370274808
C        -0.78162340162908       0.74599880290749      -8.68589531328906
C         0.88354793822078       1.13925802020179      -5.46468274918291
C        -0.31142864316369      -1.45961189864386      -6.38713462794076
C        -0.10611246610177       0.24060587493535      -9.97998230468388
C         0.26528174920555       0.78394791173787      -4.08833109150750
C        -0.67722095523605      -2.53596556226653      -7.42609635340170
F        -0.86534839300389       2.12922185906616      -8.79569170590349
F        -2.08264321317872       0.26880752594475      -8.67214904034242
F         0.78535386231957       2.52204900554250      -5.58563416817794
F         2.22997643917278       0.81253710680232      -5.40291781921128
F        -1.38097740254546      -1.35285195172185      -5.51617153503280
F         0.77244970324990      -1.95339823262831      -5.68024053996652
F        -0.82462433668737       0.70113785918843     -11.06928257074233
F        -0.08996887627227      -1.13540580717140     -10.03759838910391
F         1.18859883516987       0.71262984429606     -10.09388913234702
F         0.78411825998488       1.64175494768800      -3.13426781480943
F        -1.10904956314127       0.92831557358466      -4.07771970454388
F         0.59223217851113      -0.49818797654495      -3.70214844052790
F        -1.73804074883903      -2.14549121832390      -8.21397868660120
F        -1.05756514346642      -3.68545658478677      -6.75582257483315
F         0.40978799166237      -2.85731566655352      -8.21774568637462
