35
C9H20BF4N optimized with DFTB in AMS.
N        -0.15297201168677      -0.01461783832095       0.28099241247431
C        -0.83668900401967      -0.95444038442968      -0.66254833453417
C        -1.05502080347418      -0.02111257072717       1.48048412567113
C        -2.33275264160437      -0.70759850955515      -0.47720565606960
C        -2.47154297966381      -0.08938630900258       0.92326809475432
C         1.20725878056509      -0.51947437745488       0.66151274382888
C        -0.09928830447157       1.35688570575639      -0.33837098480051
C         2.17084296296486      -0.66182029096200      -0.51193658305597
C         0.64677277544115       2.39927417515225       0.48011000035087
C         3.51800543317375      -1.15696484143197       0.01535737912151
H        -0.56968408177700      -1.97048993648019      -0.36355527047932
H        -0.49326121018748      -0.77589526343466      -1.68154589695545
H        -0.86402306016710       0.85739634307223       2.09482692700981
H        -0.81280241294608      -0.90928904251144       2.06567735232589
H        -2.87950198114990      -1.64843886273672      -0.55929985294725
H        -2.71171249165923      -0.02783565805968      -1.24325871603245
H        -2.91936566078958       0.90475708123473       0.86324176842799
H        -3.09935000711106      -0.70304306426771       1.57105175692773
H         1.05831244857934      -1.48599318573661       1.14797948672833
H         1.61090518401778       0.16980469606129       1.40438578758728
H         0.36741120666269       1.24591589302431      -1.32072512247185
H        -1.13475233425616       1.67140662802738      -0.48807747290491
H         1.78260382753411      -1.37109010049233      -1.24989143692453
H         2.31599703935792       0.30063743337318      -1.00973473140110
H         0.24383920051852       2.49259307535049       1.48594705721406
H         1.70699930269786       2.16980024855775       0.55775235066876
H         0.53532399194320       3.35621777557929      -0.02986290907900
H         3.91862597023246      -0.45326655843281       0.74479093889686
H         3.40623976681182      -2.12959545920777       0.49507493208185
H         4.22547042727869      -1.25164402145159      -0.80777066862396
B         1.24852504122866       1.02445264187239       3.72981633543760
F         0.10814197548775       1.83671223612084       3.50770891671650
F         2.22040901672971       1.39106164022850       2.76447027986840
F         0.86596814616399      -0.31685144687459       3.44172440959431
F         1.72191571007460       1.14818593555944       5.00132517169369
