39
C9H20F2N2O4S2 optimized with DFTB in AMS.
N         0.49693161259153       0.47345158083738       0.19955576304981
C        -0.52764808189479       0.55370599941806      -0.89330503291363
C        -0.03241762614665      -0.40728748130824       1.30059963257553
C        -1.88993670447206       1.03268636901622      -0.40405186159176
C        -1.39125322123596       0.03614428835335       1.82517940096403
C         0.82584234803027       1.82953523900562       0.76241475418747
C         1.71612063891677      -0.18530173281216      -0.39648014558281
C        -2.41743391127627       0.11710726510493       0.69967832059449
C         1.46005597230493       2.80766311004742      -0.20984278063397
C         2.92396573290860      -0.26573348851737       0.52392742156363
H        -0.62067354322738      -0.45215641393827      -1.31328635234007
H        -0.13764852160910       1.21840132450553      -1.66648352720178
H         0.69697266763006      -0.39938748984173       2.11112037882406
H        -0.10110971942235      -1.41884695161076       0.88986883313271
H        -2.56734950245562       1.01918673437885      -1.26182544302523
H        -1.82944240798460       2.06263652204147      -0.04417223993360
H        -1.31079915671600       0.99808899543741       2.33332606500891
H        -1.69954687226702      -0.69998763140853       2.57117295663814
H        -0.09888653380367       2.25130956367253       1.15511878194675
H         1.49446033325435       1.65516444990690       1.60427638498062
H         1.40455127479898      -1.19065426944687      -0.69309423591807
H         1.97127855910195       0.37147604718256      -1.30129963231063
H        -3.36050546714114       0.51077326629161       1.08461379437411
H        -2.60522297081473      -0.88094328736191       0.28988229604297
H         1.68322472078610       3.70869527758797       0.36204842338183
H         2.39353114411146       2.43223655509398      -0.62351799204486
H         0.78601575248627       3.07197423370705      -1.02376024083909
H         3.66352167930015      -0.90163618477888       0.03792931608874
H         3.37309897741391       0.71039842910980       0.68889057051283
H         2.67743625754490      -0.70185195819998       1.48938708076943
N         2.29279575240857       0.91099162293581       3.56927711012307
S         1.00160654912330       1.17901877572998       4.45053524000750
S         3.29181736983756       2.14010279383062       3.34313657797786
F         0.12783692165604       2.23777446136343       3.53162844284790
F         3.87254732950086       2.48591241983765       4.79379245507798
O         0.20777161850009      -0.01143140785691       4.39366456790828
O         1.16748305633377       1.85393329928674       5.68936182462419
O         2.67534944984117       3.35013282933416       2.88841922633487
O         4.40347999318574       1.63399879316453       2.60137451559777
