35
C9H17F6N2P optimized with ForceField in AMS.
N        -0.02380319628753      -1.33090655502268       0.34341358693669
N        -2.03983807136875      -0.39861405315408       0.23459428832810
C         1.32984142616241      -1.64607909575653       0.79624312738083
C         2.37564428550472      -0.87375678652522      -0.01817437487648
C         2.19931225311665       0.64539136463018       0.12336424436972
C        -0.92658971138718      -0.55642477878596       0.97690594145254
C        -0.58580895022870      -1.67613045542933      -0.83260327313583
C        -1.83675805500126      -1.09832723699405      -0.90004109140041
C        -3.19748502242401       0.43113245271030       0.55661631068227
C         3.28796593466433       1.40394537884848      -0.62695358648054
C        -3.15317640291296       1.73106244105116      -0.23776056226072
H         1.44168504832769      -1.39353115105015       1.87387684018903
H         1.50850667408514      -2.73803265197956       0.68815647185961
H         2.29911520032882      -1.16454465668518      -1.08873032967366
H         3.38655294222334      -1.16268177947646       0.34460114043310
H         1.21296484446782       0.95171181827817      -0.28822130450516
H         2.23607095101936       0.93033114190427       1.19726727539834
H        -0.75735116053700      -0.07855121699943       1.93390766962422
H        -0.11250136134695      -2.28159824853269      -1.59320780075866
H        -4.13157838011182      -0.12279156639024       0.32077835732583
H        -3.20276335286842       0.67244784407295       1.64201587242679
H        -2.53756508495815      -1.16775597839424      -1.72201553203322
H         3.26103254337141       1.14829746306339      -1.70748345324317
H         4.28774450950791       1.15408515442043      -0.21260899096708
H         3.11983344416817       2.49596830946509      -0.51622013399309
H        -2.22698058587301       2.29330099115126       0.00766185861529
H        -4.03232927168533       2.35821054425926       0.02049251195717
H        -3.17262610134767       1.51678410919303      -1.32755424159208
P         2.57096260738943      -4.70984464667007      -3.49364227735493
F         2.91070983472002      -5.36427803980178      -1.94234578631402
F         4.10745316104325      -5.22806199947739      -4.06027819151702
F         1.90236961561813      -6.21120061333901      -3.99272517365394
F         2.23092096159930      -4.02929269560717      -5.03363336262590
F         1.01309131828382      -4.23542266331435      -2.95096421311720
F         3.22874332193704      -3.20628261726240      -2.98634002067641
