39
C9H20F2N2O4S2 optimized with ADF in AMS.
N         0.09841098392668       0.25197154603163      -0.03751251055233
C        -0.76857877345687       1.14097501180764      -0.93036441315142
C        -0.62286784367499      -1.06096311857567       0.19266299297594
C        -2.18120931935888       1.31982568806328      -0.40924130503971
C        -2.02586892267262      -0.88159485296961       0.74908740109139
C         0.37381641230953       0.92992762658125       1.30942651995815
C         1.38339679793182      -0.01363555482795      -0.79633471868998
C        -2.87446863448628      -0.01931027817730      -0.18180466248172
C         1.45426716553111       1.98918493561155       1.28253113279056
C         2.36626880538715      -0.93968871041770      -0.10534829541699
H        -0.77677006449974       0.63738157260018      -1.91153861097720
H        -0.25917530169735       2.10775115662315      -1.03438526439418
H         0.00670643823498      -1.66018833268866       0.86451646059711
H        -0.66409244341490      -1.55789178201191      -0.79156383677824
H        -2.70842436167743       1.93151412240139      -1.15948508024218
H        -2.17809993659991       1.92767997780620       0.50806026974653
H        -1.98345822793452      -0.43381106879001       1.75637563104245
H        -2.45802552222655      -1.88957757872038       0.86806785216766
H        -0.57361334410623       1.37997412707165       1.62979222230521
H         0.62261679248929       0.11702442994295       2.00863236174478
H         1.07226683732797      -0.43270632606142      -1.76522544676418
H         1.82516096921928       0.97338225446616      -0.98968886461100
H        -3.87665912406563       0.13471278289155       0.24759410888676
H        -3.00992771265179      -0.54748808117034      -1.14495056902246
H         1.41159270749794       2.52941759089935       2.24110987237003
H         2.46532799923161       1.57284637009198       1.17354838230443
H         1.28227957773281       2.74591932705400       0.50865557979367
H         3.29425090661443      -0.94559954072454      -0.69698721278668
H         2.62609334466564      -0.60112275430260       0.90673606488159
H         2.00591347629317      -1.97630252963106      -0.05422493287194
N        -0.92271051451892       4.08629165828115       0.30127470193975
S        -1.08470345335926       4.49967511923251       1.84470410036358
S        -0.20766850044055       5.04100958255939      -0.77347773582604
F        -2.26361832461214       5.64038828979878       1.82600194376009
F         1.40245409982311       4.94081534803630      -0.33799437104022
O        -1.69930374566894       3.34921739763617       2.49899149215681
O         0.05450962942110       5.15589461025483       2.45543133255366
O        -0.50739837575046       6.45300881721489      -0.69957221811523
O        -0.24539418676368       4.31744317341122      -2.03629712616847
