52
C14H23F6N3O4S2 optimized with ForceField in AMS.
N         0.21525806955889       2.29947237735392      -0.22038045905747
N        -1.86436105582962       1.50961509511312      -0.19459602183570
C         1.60541366083635       2.49288440101755      -0.63214295005623
C         2.53658879519379       1.48538485891806       0.06034410234211
C        -3.05317171735861       0.75039198926647      -0.58133230662509
C         2.11181086592159       0.03826627418435      -0.22344169130072
C        -3.07857963758443      -0.62494145055687       0.10278184972375
C        -0.75320963638309       1.69249024771341      -0.93454265221414
C        -0.30425675583367       2.51861593822902       1.00436957290448
C        -1.59455098681085       2.02885188441072       1.02018774437187
C         3.09389949655222      -0.97529152790286       0.36847129372772
C        -1.88787307866290      -1.49595679345171      -0.32246403919358
C         2.59532228871529      -2.40187389668912       0.14386947204190
C        -1.94091318848716      -2.87618036587473       0.32394578471100
H         1.92152107943559       3.52424354108936      -0.37745188313171
H         1.69461131999194       2.37730781656692      -1.73477653902839
H         3.57208849792575       1.64848538060685      -0.31001322129210
H         2.53053783775818       1.66820987352314       1.15730298737740
H        -3.96164483100846       1.32332862545576      -0.29623932813781
H        -3.07601027418807       0.61413557362097      -1.68504112506821
H         2.03319736915542      -0.11960953328194      -1.32189312406481
H         1.11831107928089      -0.13397606130912       0.23532848758181
H        -4.02455822965838      -1.13903660015098      -0.17421743981567
H        -3.07118362570697      -0.49072511169383       1.20665309950055
H        -0.62313112581517       1.31699018408462      -1.94210539872481
H         0.23121188169217       2.95278971595997       1.83866127714280
H        -2.26643899494144       2.00892351510138       1.86831833493406
H         3.20160764704199      -0.80004857321076       1.46115151241508
H         4.09003776478254      -0.85693956926115      -0.11033595145819
H        -1.87814181434998      -1.61082420766760      -1.42812682749271
H        -0.94382775712420      -1.00879370662281      -0.01266874746446
H         2.50124142748580      -2.61116451320403      -0.94322680529005
H         1.60489950039843      -2.54571965344398       0.62764356490454
H         3.31305369209422      -3.12448856947465       0.58521458401343
H        -1.93796766223417      -2.78442611958533       1.43107203076076
H        -1.04871542833907      -3.46269230168835       0.01686033862357
H        -2.85343657704113      -3.41956176731688       0.00004074328906
N         1.16689530712869       7.98080473744340       0.46547957639798
S         0.15596469024463       9.10935340224161      -0.15965831862588
S         2.48945096818571       7.43248964765640      -0.33284184880420
C        -1.16627729962989       8.29603096451237      -1.03295442056018
C         3.92998940511603       8.29683068331713       0.25355431996426
O        -0.42948900503183       9.91998204714599       0.96129461854260
O         0.89419188347441      10.01806397696440      -1.10283499273777
O         2.34601309355292       7.64182325131403      -1.81474960446120
O         2.66342878316499       5.96922195242627      -0.04769883649836
F        -2.03519378142467       9.24302233129209      -1.54083976576161
F        -1.85028269421806       7.46520221750862      -0.16596791831665
F        -0.64829794714917       7.54646164377840      -2.07159756040022
F         5.04635568109062       7.84518026254815      -0.42438438477139
F         4.08962620997685       8.06250390705551       1.60615928461908
F         3.77897760745511       9.65298290696676       0.03748811909950
