48
C12H22F6N2O4S2 optimized with DFTB in AMS.
N         0.68356515549961       0.63554874214993      -0.35593680331339
C         0.09729229014813       1.82795539031020      -1.06322742802523
C         0.60289545505456      -0.56842779518442      -1.24732967542906
C         2.13054829843038       0.96884708208047      -0.08503986040304
C        -1.32130298978315       1.59659490114540      -1.56478427519231
C        -0.81237349903705      -0.84308996479295      -1.74070708957480
C        -1.38336214985911       0.36989055605687      -2.47146049023998
C        -0.02499956605057       0.40132434140194       0.92833583003388
C         2.91391328820171      -0.08537541413626       0.69022420008649
C         4.37832903382982       0.36591299912124       0.79248428864317
C         5.21237301948393      -0.64706570127797       1.57136164381137
H         0.75149402611598       2.04686040740723      -1.90785302929577
H         0.13249220553462       2.66637592234735      -0.36431458578534
H         0.98018599202788      -1.42389279055739      -0.68435093823008
H         1.26117260081700      -0.37501742544997      -2.09736064925030
H         2.13582699448208       1.91629119911062       0.45938959853280
H         2.59583885615177       1.12589705210862      -1.06378161146184
H        -1.60730957417744       2.48743866186765      -2.12977575148596
H        -2.02140531671635       1.49221752010093      -0.73004277023959
H        -1.46260327170841      -1.13003783828310      -0.90820148717007
H        -0.75367768806054      -1.69241910126314      -2.42621646254256
H        -2.41888361135506       0.17401941950878      -2.75882357504993
H        -0.80195850500793       0.55490854119730      -3.37822597793302
H        -1.09076338395885       0.29230492388134       0.74614936831729
H         0.35644375757202      -0.50698258183480       1.38900813259665
H         0.14904317270265       1.25305281773505       1.58357320338876
H         2.87281987659255      -1.05006731778087       0.17743755157801
H         2.50348784940288      -0.21523780580961       1.69629894577114
H         4.42201242802408       1.34027193801557       1.28926056859872
H         4.78984637695179       0.48524824610840      -0.21332633488954
H         5.19578721305400      -1.61862174521274       1.07573450514399
H         4.82773348186714      -0.76666427768143       2.58553570434486
H         6.24502165121663      -0.30438968273131       1.62898870366822
N         3.23308007747498       1.45435625712963      -3.01053234234916
S         4.27638158967525       2.66565964296694      -2.81090179550013
S         2.09864128009126       1.61644958294502      -4.13461982957204
C         3.34917773203184       4.15028478225155      -2.12141543837215
C         2.84840478463773       1.72469023361788      -5.85451585009739
O         5.11280298770790       2.27063198064396      -1.70518199583722
O         4.89098937213327       3.13519331802367      -4.02266025208861
O         1.29048450512441       2.81157771305446      -3.98540872290001
O         1.38457687236618       0.35233718092285      -4.13706318167740
F         4.16806890773381       4.85506051461554      -1.35925434779301
F         2.34268968056814       3.71652338041869      -1.34450065691838
F         2.85635882734900       4.92704036252421      -3.05940181254204
F         1.97563347240140       1.21094478127956      -6.70618371360761
F         3.96455287381914       1.02390695886680      -5.90787046873690
F         3.08517885283902       2.97541527248030      -6.18349665401152
