40
C12H8F18NP optimized with ADF in AMS.
N        -0.09023605573203       0.22266196485454      -0.84618020863717
C        -0.27720299387154       1.45518595895262      -1.36591662849297
C         1.12614568408946      -0.36488526399848      -0.87772722459408
C        -1.26005759430394      -0.56377253632021      -0.41765851896303
C         0.77642026978770       2.14905214731233      -1.92511995543554
C         2.20850757390176       0.29159235486650      -1.42494998335642
C         2.03581494443785       1.56226227656577      -1.96326697325142
H        -1.29707538279493       1.83211693142626      -1.35751110449566
H         1.18246067825640      -1.37699754282747      -0.48483293791867
H        -0.94573883585188      -1.28461267873984       0.34483530402812
H        -2.01312488425852       0.11424805313812      -0.00176390071704
H        -1.65230124689978      -1.08437727430131      -1.30219904113880
H         0.58968519172752       3.12652274284938      -2.36791161485845
H         3.17121914980489      -0.21691664427913      -1.46112951359478
H         2.87144917143250       2.08012132705751      -2.43506559616643
P        -0.17590024539052      -1.06519356720773      -4.97627174751385
F         1.21046397198621      -1.92981326521335      -4.63879454852554
F        -0.26660265192158      -1.71814579515150      -6.48862933774165
F        -0.14371456282841      -0.36223616292351      -3.43086026784140
C        -1.18405450008054      -2.59218796956804      -4.19151704562774
C         1.06628552914633       0.37474158151188      -5.56678626236548
C        -1.85238947423150      -0.04483437558306      -5.40841123400423
C        -0.41283739302059      -3.62916416151991      -3.31170644851301
C         1.70927270611118       0.26884934850691      -6.98152259457014
C        -2.48990088650347       0.99348145043441      -4.42511572263805
F        -1.79547685115118      -3.35881728359599      -5.14864384066103
F        -2.18544419720867      -2.12538105438178      -3.34056782007884
F         2.14513561979575       0.41331251091027      -4.68850795068094
F         0.51183041341284       1.63622033194784      -5.49936285627793
F        -2.87025079261868      -0.94061528673585      -5.66052188508425
F        -1.65973630521437       0.65515222075240      -6.57817555236189
F        -1.30808046721502      -4.47863012258349      -2.72893679182197
F         0.26830168571433      -3.02388900244756      -2.28693334585515
F         0.44894604857273      -4.37718349740457      -4.02201478615982
F         2.39864786085217      -0.88405112573061      -7.12744659560360
F         0.78774176339011       0.35863550454513      -7.96241200779727
F         2.59146952124877       1.30249234018046      -7.14894122947446
F        -2.87033764169737       0.43349196441011      -3.24179103530453
F        -3.60318686755572       1.52676722149468      -4.99189241350404
F        -1.65827253171827       2.02558658639628      -4.12474183940085
