28
C8H18ClN optimized with DFTB in AMS.
N         0.07319730979694      -0.17022116997619       0.12573014107284
C         1.06676023880796      -1.06555855498642      -0.55723371005670
C         0.90746485287144       0.55699516828971       1.13402514830623
C         2.32857292126301      -0.22337210404491      -0.68811034814765
C         2.24789269105342       0.81254058480571       0.44559254627464
C        -0.98638750039590      -0.97317510997256       0.82096212759645
C        -0.50256048739846       0.79097049178605      -0.88091880422020
C        -1.86475102958904      -1.78643568382338      -0.11670030345685
C        -1.61131903326970       1.67985968114244      -0.34360099702902
H         0.65105363200971      -1.39460361674002      -1.51837642336014
H         1.23540724737960      -1.92681251288026       0.09359705464370
H         1.03334211215885      -0.10012318380765       1.99776035414812
H         0.39969158662672       1.46745618124058       1.45094462564323
H         2.36440020261815       0.27053928740425      -1.66092751197316
H         3.21448042184378      -0.85315301751077      -0.59516100226692
H         3.06274089859556       0.69044494125043       1.16144898548795
H         2.29482696044001       1.82891023440677       0.05004172062002
H        -0.46443681662462      -1.64063157997312       1.51272530684604
H        -1.58645882968284      -0.27408766678888       1.40893505609969
H         0.32701057615375       1.40604878695172      -1.23367644610985
H        -0.86520326760092       0.18651299419949      -1.72275809593405
H        -2.55071810485265      -2.37178325743284       0.49529693332548
H        -2.44558489155505      -1.15086275725567      -0.78051149891046
H        -1.27324805070608      -2.46330725920082      -0.72868304534591
H        -1.85976195115527       2.39521703477814      -1.12733868198747
H        -2.50987480727598       1.11060785953872      -0.11251158561811
H        -1.30753815132993       2.23739258007326       0.54256576025929
Cl       -0.73881498548248      -1.44761323677378      -3.15815448890720
