33
C9H10F6N2O4S2 optimized with DFTB in AMS.
N         2.50422896237539       0.10296060193583       0.61427020927972
C         3.06073241638453      -0.02850129010829       1.96929267975357
C         2.42174006725934       1.30900516661943       0.03434329184104
C         2.14488771571817      -1.01054979417378      -0.04432248870220
C         1.93553013103635      -0.18747833682683       2.98268123246685
C         1.96642252529412       1.43351273495517      -1.26173079623116
C         1.68033308576137      -0.93625117611775      -1.34089512250565
C         1.59601811787670       0.29821617773901      -1.96899766073495
H         3.72194720122392      -0.89955093307225       1.96379071128011
H         3.65765753836087       0.86098739163303       2.17557475763344
H         2.74796303471368       2.16387587602212       0.61204705515335
H         2.25531477351470      -1.95018994041001       0.48134659161408
H         1.29124184490361       0.69128564978937       2.97931805135016
H         2.36824632824498      -0.30527702632509       3.97476208993113
H         1.33514410870390      -1.06803553187270       2.75547985892408
H         1.93351625976434       2.41450178999648      -1.71742042651939
H         1.41680956434310      -1.84918778261548      -1.85899033895117
H         1.26122630254725       0.37261092574528      -2.99621322843468
N         5.87496407514603       0.10310685390242       0.80656370263167
S         6.80926973843149       1.40256503868571       0.61516589570898
S         5.36806121932226      -0.62940149052043      -0.52265473232157
C         5.62544335103788       2.85275050657510       0.49629964765374
C         6.81448750833883      -1.37981186575438      -1.46463609258625
O         7.46583368183344       1.63907610822289       1.86872692511537
O         7.57028341023256       1.43573442071706      -0.60383715100177
O         4.68564045026542       0.22217793339207      -1.48145453037672
O         4.61805328853429      -1.78644115855364      -0.05703954485562
F         6.26933148764904       3.99418331549438       0.63639217388663
F         4.71918139850216       2.75850847355658       1.48743844383787
F         4.94771415615787       2.88037192180845      -0.64387272048676
F         6.42833106777759      -2.56192162522534      -1.92133071688003
F         7.84838839778669      -1.54646051052904      -0.66438578013535
F         7.15148172375804      -0.62003648648530      -2.48395870813855
