32
C10H14F3NO3S optimized with DFTB in AMS.
N        -1.01738601179498      -0.11428294567143       0.70878198069472
C        -2.18736964144352       0.13100415628844      -1.43037136836326
C        -2.33752669809220       0.03176899037358       0.08727787894087
C        -3.55990763986434       0.28670477633318      -2.09273530547265
C        -3.43234568406719       0.38908665384164      -3.61104128094185
C        -0.34217911709643       0.98613506882065       1.07137950023566
C        -0.56090764573360      -1.34006450543446       1.00093436388099
C         0.87617620414896       0.87904468367750       1.70859222958740
C         0.65217685072981      -1.49973069185101       1.63729497658430
C         1.38736963196197      -0.37876269804217       1.99724436143124
H        -1.69142515648874      -0.77043878247565      -1.80522199485914
H        -1.55470612007980       0.99006200592751      -1.67684379432492
H        -2.93708224437244      -0.83424528176557       0.37513660213082
H        -2.79912810406010       0.92994838550246       0.50381245063929
H        -4.18544870120173      -0.57360594958607      -1.83464010655646
H        -4.04870049519469       1.18576790534449      -1.70428622844923
H        -4.41954416170254       0.50075190831360      -4.05877450777400
H        -2.82523946327567       1.25220704568952      -3.88711580678344
H        -2.96544373316217      -0.50906989701654      -4.01739219035956
H        -0.81003347567966       1.94004552308883       0.86582562295023
H        -1.19786409451684      -2.17627703989522       0.74338303011524
H         1.39861445867565       1.77801921263301       2.00836981666099
H         0.99578800095591      -2.49649163002633       1.88093203167272
H         2.32821663536172      -0.48311201707560       2.52310456911909
S        -2.17769329401925      -0.08349971089018       3.45309312943389
O        -0.84151543151802      -0.27430667206445       3.98435094718124
O        -2.68442082168625      -1.22084717248613       2.69158707850868
O        -2.37736366599051       1.20182262951410       2.78803995154773
C        -3.28014950517340       0.00199472247301       4.93458640585918
F        -2.92378160137415       1.00778175496230       5.72458642174345
F        -3.21257700068027      -1.12426485015314       5.63432412603479
F        -4.54230372506547       0.18853347185015       4.56358256423199
