36
C8H18F2N2O4S2 optimized with ADF in AMS.
N         1.19754600648714      -0.15130062385097       0.06282858780477
C         0.96222277979465       1.35687061066847       0.07259347582171
C        -0.03410646239019      -0.84199768714733      -0.48217339915945
C        -0.30325446426060       1.75526766824694       0.81056500229216
C        -1.29967386827901      -0.48332248298764       0.28121264248885
C         2.38452715503898      -0.40791434459911      -0.86524301763496
C        -1.53471785077498       1.02685353083152       0.27716458070833
C         1.51685872460681      -0.64378825746510       1.44413761059105
C         2.95072985313342      -1.81039122261151      -0.81176038307483
H         0.90963538023418       1.64882906968408      -0.98860774001700
H         1.85201720835837       1.80839800466963       0.53411858111845
H         0.16535953832193      -1.92257714440082      -0.46193675099742
H        -0.11985847439690      -0.51986863247101      -1.53241864789440
H        -0.40439808261007       2.84673333074061       0.69449898673667
H        -0.18129182523238       1.58355411630938       1.89292648426883
H        -1.24703039793724      -0.86627004173329       1.31434384108790
H        -2.13589493170102      -1.01500994849933      -0.20331492716281
H         2.02009142191275      -0.15597246875879      -1.87297309817529
H         3.15450048072320       0.32203747594454      -0.57789831647135
H        -2.42402237479018       1.27917685020619       0.87622921264695
H        -1.74070033968565       1.35967548645321      -0.75723299220952
H         0.76089044360733      -0.27590065580339       2.14264278876332
H         1.51337077420581      -1.73976980734650       1.43284188138042
H         2.49983594371715      -0.25352054113472       1.73229414340036
H         3.72438553565015      -1.87913966259516      -1.59142704688368
H         3.45074405987591      -2.00842214999506       0.14592906814843
H         2.20619316156921      -2.59264084074564      -1.01996998056847
N         5.79363852593562       2.45327547602197       2.13664827494020
S         5.61772244924301       3.99661333687031       2.64400334163273
S         4.54766915033492       1.67002060092487       1.59308090332838
F         4.90341769205358       3.77438462789295       4.11550462951474
F         4.31372297505682       2.26335685872987       0.02274410772331
O         6.93680126953043       4.50021103818163       2.94596850511920
O         4.65730313559669       4.77857515333394       1.89068805056093
O         3.24134027423243       1.93615889015245       2.20173349942842
O         4.89387631613772       0.27658205478279       1.33248919454304
