32
C8H15F6N2P optimized with DFTB in AMS.
N        -0.54385881185445      -0.20547155157712       0.69395521838227
N         1.60467349390861      -0.22760033399898       0.55464725390516
C        -1.88863738881768       0.16288222111617       1.13569878558796
C        -2.74881153024087       0.66582097495023      -0.02553056557127
C         0.57497128308968       0.26608157103857       1.23444631840226
C        -0.22211907252136      -1.01616099487684      -0.36351620483298
C         2.99863862728687       0.15815203241613       0.76427833060665
C         1.13366165481961      -1.02504638619036      -0.45426381878520
C        -2.16221469140228       1.90610411135717      -0.69395699695417
C         3.45099188407928       1.10823963887428      -0.33868636396855
H        -1.76986082718741       0.94651830658114       1.88857511701967
H        -2.34807351295442      -0.71697944144930       1.59774962433704
H        -2.87743147990657      -0.13420096523218      -0.76180571053644
H        -3.73461230281133       0.89914803961920       0.38794981046385
H         0.63955990662364       0.93373873075434       2.07513644456752
H        -0.96805190201819      -1.51640483797959      -0.95529865446226
H         3.05592063724905       0.65134424082074       1.73723961225933
H         3.60560893382242      -0.75212702134104       0.77813762921394
H         1.78998615094794      -1.53151817629631      -1.14008651871532
H        -1.19543180634628       1.67903256040937      -1.14151036877884
H        -2.02585453429041       2.70533960882582       0.03328372501976
H        -2.83724379982909       2.25315505231787      -1.47572542997725
H         3.37808610151265       0.62815339929783      -1.31419426661856
H         4.48683252648411       1.39026898571760      -0.15663382053862
H         2.83393833546964       2.00486111707518      -0.33536171604726
P         0.75910250050201       3.64933092551940       1.34155285845095
F         0.68152446750539       2.52096841167946       0.09049535337058
F        -0.37703566874345       4.54354035666668       0.59030202686657
F        -0.44871351363398       2.77405746419050       2.11686690538438
F         0.83152371955913       4.67765922160149       2.59274376830019
F         1.88721272775629       2.65017007065856       2.08435238557314
F         1.96310026234147       4.41612087155397       0.55609645637549
