35
C11H21ClN2 optimized with ForceField in AMS.
N        -1.11860095238202      -1.71556962318399       0.22946107482118
N         1.10264981730965      -1.68923304125613       0.29824411605678
C        -2.51074616912518      -1.44467809636949       0.57857760038527
C         2.46365210235357      -1.38626544072028       0.73486500976312
C        -3.02046189273230      -0.18919108469603      -0.14110711807755
C         3.05567359978009      -0.22539990132224      -0.07559640668419
C        -0.03314642796095      -1.41973577015055       0.96902389446365
C        -0.65525485133947      -2.19421369875123      -0.94258049446842
C         0.72370935939477      -2.18108309423681      -0.89873841310599
C        -2.27499293288851       1.07331520595092       0.31694075432394
C         2.23936348150557       1.06478819111443       0.09338575296711
C        -2.86577144403503       2.32757155690457      -0.31760160423783
C         2.89973704439739       2.23687606532471      -0.62435651798125
H        -3.13669178814352      -2.31670704630198       0.29054455842861
H        -2.60945939762180      -1.31144846597953       1.67845897959412
H         2.46800661928659      -1.12202355827664       1.81546653290966
H         3.09823177147087      -2.28940077502932       0.60739310157296
H        -4.10480207992321      -0.07652443764647       0.07624403807011
H        -2.90121858878602      -0.31702768527404      -1.23892197301967
H         3.09288676221388      -0.50553151883709      -1.15054332539697
H         4.09798686425093      -0.05232252546583       0.26999947561362
H        -0.06930472890265      -0.95502052037380       1.94592195801390
H        -1.27200418247424      -2.49832210820285      -1.77752029608268
H         1.39757368660403      -2.47343762307108      -1.69265525050294
H        -2.33331939087249       1.16811563275916       1.42288849203756
H        -1.20573651396084       1.00440095848669       0.02644182394234
H         1.22286686925518       0.92296133322085      -0.33092642248032
H         2.13944852218474       1.31240055870493       1.17238163630709
H        -3.92469469479057       2.45376167212465      -0.00757142005731
H        -2.81057421156155       2.26283010979963      -1.42488239862444
H        -2.29009238220313       3.21708351134741       0.01530783085316
H         2.99929009732306       2.01887805225669      -1.70880242937250
H         3.90417494649033       2.43556040273424      -0.19432857498337
H         2.27434457359142       3.14633076449456      -0.50108744579819
Cl       -0.28593178220858      -2.65554309017806       4.53485845514946
