34
C10H21NO2 optimized with ADF in AMS.
N         0.34890227720683       0.23214230906387       0.08373810734832
C         0.89618353182511      -1.13458706978879      -0.25792417409697
C         1.60517276029414       1.09326601439793       0.28393196481892
C         2.10815311001411      -0.86079856828145      -1.13064990514219
C         2.74220587066985       0.37306823550914      -0.46157943865954
C        -0.47204015455127       0.19512945684394       1.35864333248155
C        -0.46113620950943       0.76561958259903      -1.08847729069739
C        -1.68590303928592      -0.70482862318902       1.27174441036667
C        -1.21218718711920       2.04643797807298      -0.77386456862264
H         0.11064488814536      -1.74397268961261      -0.72218468375425
H         1.19852424158899      -1.58802117735336       0.69894833184714
H         1.74969338278384       1.20185256530304       1.38429294384266
H         1.37589811551792       2.09803587669507      -0.08561699006231
H         1.80298787253606      -0.65318321504126      -2.16845410303967
H         2.78118156027129      -1.73045140861710      -1.15705666225406
H         3.50852238583436       0.05686709177633       0.26378146399012
H         3.23546920940514       1.02687304895803      -1.19496907005619
H         0.23002422983742      -0.11948888545300       2.14547569155649
H        -0.69124647048478       1.25636937253227       1.58780101261626
H         0.26544485855346       0.92174239907701      -1.89894779746062
H        -1.14490388061968      -0.04061158449422      -1.39668504188638
H        -2.19537002997920      -0.66734725981360       2.24656010557992
H        -2.41356226652541      -0.37537985326476       0.51456577757738
H        -1.43064983740801      -1.75884359163245       1.07926945302499
H        -1.50431909554585       2.52459012546244      -1.72045157267896
H        -2.12528268013119       1.84901493217170      -0.19478926094458
H        -0.60782596627007       2.74832452113454      -0.17655289771519
C         0.75664512116787       3.90228944476442       4.06800323436994
C         0.74975717849912       2.83059465624383       2.96948170805130
O         1.48694870355206       1.81082580535675       3.14876538115518
O         0.00392936988283       3.06598316760045       1.96335467637361
H        -0.26874140751714       4.24916808322708       4.26303697373698
H         1.21719130859582       3.52626803097482       4.99177742428073
H         1.33152447326556       4.77343141907697       3.71487027285277
