37
C11H23NO2 optimized with ForceField in AMS.
C         2.67910408475024       0.32966178031060       1.58631699672364
C         1.64073219206313       1.27236914067880       0.99681643904574
H         1.36046460993247      -0.87353792281982      -0.87584269191144
H         0.38539909884826      -1.70006625056884       0.38536144815724
H         3.16583860259637      -1.43415001336402       0.40448474284486
H         2.14520687983717      -1.75035988502692       1.86540761952298
H         2.60479316665569       0.32535838138005       2.69598048194508
H         3.70736675783382       0.63631822214263       1.29341438051857
H         1.36059232299942       2.06411611070968       1.72992238382795
H         2.11553937892592       1.78764147280590       0.12844062730154
H        -1.24687956641640      -0.44646160012681       1.49668254095852
C        -0.45520505377852       0.30229280767524       1.71472293453545
H         0.07833843416805      -0.05452444231616       2.62350424389160
H        -0.94583992195427       1.26965490178049       1.96293602040616
C        -0.18667755686779       1.14360162804557      -0.59173946190819
H        -0.31870209481795       2.22301731542710      -0.34606389066474
H         0.47400661936259       1.12595462355906      -1.48869126448933
H        -2.31309218120404       0.72323552342723      -0.16649693046285
H        -2.94086404520745      -2.12169905926353      -2.65581312073734
C        -1.61278970052820      -0.78924065151177      -1.57672886177779
H        -0.78283968515056      -0.92520019283273      -2.30368170021052
H        -1.50579211650190      -1.52492111242002      -0.75651824505735
C        -2.93702331240224      -1.07713747384573      -2.27975426089269
H        -3.07560820065061      -0.38990508185632      -3.14185148683747
N         0.47584847351769       0.46002212901752       0.56662797672553
C         1.07229665462933      -0.84727071571903       0.19986743326175
C         2.33669638997322      -1.03905299767759       1.03174967269243
H        -3.78350557939856      -0.95219918527405      -1.57054415412193
C        -1.59080017684955       0.63427142253278      -1.00489356225411
H        -1.95559776983005       1.32822009570163      -1.79448519595257
C        -0.90856751661761      -4.52875748880455      -0.77307610353012
C        -0.44616377826224      -5.90251644352493      -1.14179391787981
O         0.53975261405189      -6.37858576619366      -0.60226878334660
O        -1.05065203921709      -6.55104357651947      -1.98106729062256
H        -1.18133650090746      -4.50298391934564       0.30295179983402
H        -0.09338427267711      -3.79933358378945      -0.96197120972830
H        -1.79620311270566      -4.23837214809322      -1.37500104940736
