28
C8H18ClN optimized with DFTB in AMS.
N        -0.01113206407510       0.15733209846957      -0.16879138146101
C         0.98813250987458      -0.62081992766465      -0.96737411095447
C         0.83510980214246       1.17187213655143       0.54670730070764
C         2.22506060082426      -0.73109589832926      -0.07720554787612
C         2.11051740317476       0.42994376323271       0.92455023013389
C        -0.68696552945651      -0.72492584251972       0.84706415760994
C        -0.98859284411774       0.82421455311815      -1.09159265321877
C        -1.65247498410284      -1.74102087953477       0.26156913879760
C        -2.04430017186000       1.65890640629568      -0.38452581458344
H         1.20902698492460      -0.04881523292360      -1.87157135317313
H         0.56893701170374      -1.58561867600849      -1.25070094798623
H         0.27927780060182       1.55644071315496       1.41133353221109
H         1.04363556941222       1.98118392438913      -0.15643014656985
H         3.12906031323792      -0.65347815705219      -0.68353109462089
H         2.24608303968308      -1.69218764972059       0.44019796866284
H         2.05060604119324       0.05306381610336       1.94717436232181
H         2.96893570554158       1.10026379677977       0.86064766285695
H         0.10816040066798      -1.23927383030102       1.38974906079497
H        -1.20528384571620      -0.05797318601909       1.54887777099416
H        -0.39855726625586       1.45924946325541      -1.75852300035074
H        -1.45260653847198       0.03770534263159      -1.69229977498640
H        -2.00529328211916      -2.36157867838481       1.08498521338889
H        -2.51830185151400      -1.26280104037418      -0.19248660622010
H        -1.17965855135178      -2.39016386378011      -0.47551579339953
H        -2.62844250293469       2.17067963152975      -1.14917103980455
H        -2.71333559870356       1.04285848568554       0.21089402353815
H        -1.59331103178418       2.40064421586791       0.27031830165332
Cl       -1.36593818521864       1.73983843034754       2.78641619793397
