23
C7H8F3NO3S optimized with DFTB in AMS.
N        -0.06055534335421       0.52051662635833       0.31623672767862
C         0.53229670391386       1.54255429458592      -0.32403338000983
C         0.62931151102832      -0.57206376530424       0.67422615046021
C        -1.44828129592629       0.69319751001816       0.74084090327380
C         1.86204039138758       1.45837897091542      -0.68647274602352
C         1.95738543639429      -0.70407304867702       0.32859956948371
C         2.58930405979920       0.32370265571216      -0.36076150914785
H        -0.08248622636943       2.40069825647823      -0.55858065955909
H         0.10054931741370      -1.32346850732233       1.24718435600870
H        -2.07833043726430       0.82733719474200      -0.13781439200608
H        -1.76726182369261      -0.17859177806383       1.30710492332760
H        -1.49367484255682       1.58426909636429       1.36967749077576
H         2.32570094508943       2.29514673521463      -1.19225834194197
H         2.49771698423370      -1.59110499935378       0.63139800596433
H         3.63818045581997       0.24830140931328      -0.61941506705102
S         1.15902588723173       2.33975286118087       2.82166943845852
O         2.03609613001327       1.26039844213335       2.40548994296946
O         0.34507081167426       2.87660955791287       1.72681058707991
O         1.72813923036575       3.32505189441128       3.69619877015257
C        -0.12606940171784       1.45022071476412       3.84622864115530
F        -0.27571511365576       0.19208421379666       3.38071136181245
F        -1.32038216304661       2.03581006309198       3.73129477103055
F         0.18218818311881       1.37473307612763       5.12782682290786
