32
C8H18BF4N optimized with ForceField in AMS.
N        -0.00827233950705      -0.01113869456498       0.00862275675609
C         0.90588400407843      -0.85744233648411      -0.81760956923976
C         0.89721755700775       0.83978294756626       0.83996606600982
C         2.31600888042857      -0.31985640758283      -0.67042677859715
C         2.31357594187967       0.31817642093262       0.69016850337469
C        -0.84410316754532      -0.87500063679419       0.90340729681509
C        -0.84333617710464       0.84827145369356      -0.89139788067525
C        -1.83817276692109      -1.78854818718972       0.16264939502028
C        -1.84806700047264       1.75547838582452      -0.15714200491467
H         0.62347568677141      -0.88693401241523      -1.89479899039798
H         0.92915163478852      -1.91578624576076      -0.46934081941256
H         0.61444891960105       0.85993314467170       1.91726815307253
H         0.90934099998338       1.90049219203657       0.49839122702921
H         2.50968995853244       0.44881917603368      -1.45045264451882
H         3.07813692946339      -1.12639384777556      -0.74171522086694
H         2.51942478391187      -0.44847526992673       1.46919083838071
H         3.06588178365760       1.13379567855177       0.76109983331069
H        -0.18465312523544      -1.52189697212161       1.52670011551815
H        -1.41946212407955      -0.25484911017048       1.62604722095640
H        -0.18360542548093       1.49927637768806      -1.51006658917624
H        -1.41043584002733       0.22505954127891      -1.61794589630248
H        -2.29584570798603      -2.49303281618927       0.88876110335363
H        -2.66044300926542      -1.19916918086194      -0.29127931343704
H        -1.33883453374308      -2.38651756714794      -0.62671323639247
H        -2.30541757797653       2.45707060475241      -0.88628052958058
H        -2.66973232603137       1.16099183317717       0.29120049579953
H        -1.35795720190008       2.35661468629894       0.63552883235077
B         6.23435843944118       0.75430386607133      -0.65714955059073
F         6.77224320227788       1.41016669254946       0.48191201466209
F         5.09190250260035       1.46221282795336      -1.11499081289333
F         5.86392798255623      -0.57165758558794      -0.30829051072851
F         7.21082178489679       0.71748970089296      -1.68777205658515
