34
C10H22ClN optimized with DFTB in AMS.
N        -0.51945216464997       0.05784166946920      -0.12031268358521
C        -1.39582429362065      -0.54217130926717      -1.18021560763610
C        -1.49795737531077       0.76787944901149       0.76309290636573
C        -2.65779857764960      -0.99467951632734      -0.45558468310312
C        -2.72680761916273      -0.13832398615545       0.81994092870264
C         0.44779405783037       1.01643920834132      -0.74974996847470
C         0.16666409922013      -1.01825252948603       0.67653546048571
C         1.37788822558046       1.70470876356745       0.24314523825629
C         1.29180139064968      -1.75477293178108      -0.04882827239007
C         2.28224246480254       2.67725025546410      -0.51432716535250
C         1.72956884720521      -2.95159267038670       0.79289093107879
H        -1.61567793632798       0.24472148873273      -1.90291563039735
H        -0.85680242592992      -1.33663863941692      -1.69521861746454
H        -1.05320390014918       0.95482477440405       1.74023053836726
H        -1.73862401175593       1.72119462718521       0.28756200650019
H        -3.53079330971766      -0.83725925031068      -1.09053182943807
H        -2.60923177768047      -2.05635128263222      -0.20625239328837
H        -2.70420887384318      -0.76611916432514       1.71292947241499
H        -3.63553770535544       0.46465389268115       0.85299910781030
H         1.00612785618450       0.44734258747720      -1.50330266672006
H        -0.15386617168934       1.76446023017614      -1.27248516940913
H         0.55319432058190      -0.54733894297264       1.58464259176003
H        -0.60940571880845      -1.72926278975957       0.96973371479799
H         0.80033280782908       2.25168859065364       0.99539246315859
H         2.00045015573104       0.97151493510887       0.76164260754021
H         2.14337728394039      -1.08884559880533      -0.20110910752017
H         0.96278283278253      -2.09966429576993      -1.03134462732101
H         2.86854096279249       2.14375849920854      -1.26195417959530
H         1.68773210164912       3.44033319042408      -1.01709724602837
H         2.96299527591229       3.16652123946321       0.18129394595843
H         2.08201293841367      -2.62919753726840       1.77411422211980
H         0.90250736380221      -3.64919754249674       0.93066218953034
H         2.54033526421094      -3.47101449291049       0.28472376138723
Cl        0.91965111113266      -0.95562416219657      -3.21248099581048
