47
C13H28BF4N optimized with ADF in AMS.
N         0.36316551985725       0.66925963699821       0.35595302144489
C        -0.60061268695966       1.18022248537693      -0.70899175259154
C         0.29490539625649       1.61046180971995       1.55352484406947
C         1.75544288565018       0.73447455690286      -0.25980244592340
C         0.01827249904282      -0.73281843286519       0.80583279174160
C        -2.02505310348078       1.32290775333043      -0.20217804508446
C        -1.11899417257096       1.78643869017068       2.08917743010023
C        -2.07823172778603       2.26485816903270       1.00080124254543
C         2.89365881265165       0.29560349216359       0.64180704534006
C         0.14210164294536      -1.81741699876065      -0.25117468473093
C         4.23618172815297       0.40238282264558      -0.10105739134141
C        -0.33638957293630      -3.16318493778524       0.30208052005894
C         4.61148881480491       1.82875852980730      -0.50186591033593
C        -0.21334674893068      -4.28447446509708      -0.72688273692588
H        -0.52228217718363       0.49066584340977      -1.56104858240558
H        -0.19997748924324       2.15951944926931      -1.01557626198509
H         0.70987654649385       2.56962789707106       1.20444108268993
H         0.96159998645673       1.18896239705856       2.31820566028610
H         1.88212027451157       1.77938818212807      -0.57286054838272
H         1.71007323957458       0.11455636666461      -1.16852139473131
H        -1.01010683875674      -0.69793159121568       1.18638290647746
H         0.67692151518554      -0.95015691032722       1.66023958619429
H        -2.46902741849109       0.34032608859026       0.03983922272538
H        -2.61687369390870       1.73342647179673      -1.03776431050612
H        -1.05250571248088       2.53499063257055       2.89689279539023
H        -1.48677437003550       0.85662918416520       2.55912101704410
H        -1.76820030412926       3.27131158050693       0.67331919038631
H        -3.10486041919268       2.33000071968354       1.39561029434238
H         2.75812430160080      -0.74511206130067       0.98471908717754
H         2.94143986425851       0.94455940186201       1.53180178681264
H         1.18811678650622      -1.91955854720029      -0.58436831520482
H        -0.46171476307793      -1.56593193592291      -1.13937491617464
H         4.21156438074530      -0.24961465114237      -0.99371428983368
H         5.01437811556849      -0.01323342310166       0.56232688582356
H        -1.38813202588092      -3.07034614621748       0.62807715236763
H         0.25018314911127      -3.41880827634296       1.20311462687464
H         5.63474964622150       1.85684131229656      -0.90676573320983
H         4.56363684343935       2.50777257744007       0.36320500790330
H         3.93647628873785       2.24499261585655      -1.26369851069510
H         0.83321253433879      -4.41692363603692      -1.04325427508631
H        -0.81123382240412      -4.06237775540231      -1.62504601060611
H        -0.56458629767510      -5.24344489959153      -0.31729283456050
B         1.39331144203832       4.41352118081157      -0.69125756453752
F         2.19333330008137       3.90920737024315       0.39327252210972
F         1.81612796903385       5.67761955037675      -1.08872021442009
F         0.02652863917781       4.42435350706113      -0.25356517637815
F         1.49295725398086       3.46798124659954      -1.77620205485471
