48
C12H28F6NP optimized with ADF in AMS.
N         0.33637233863388      -0.32427775063486      -0.00917052753589
C        -0.74245586253055       0.14481758617401       0.95256755343360
C        -0.25189192351685      -1.24663889961440      -1.07536218245508
C         1.38448461337280      -1.11927666462239       0.77395012355425
C         0.95340304542686       0.88270907199661      -0.68640650688386
C        -1.54629185950599      -0.95345024025603       1.62791578487114
C        -1.40228134510436      -0.68343046086843      -1.89154050589435
C         2.68058615278023      -1.41202314487873       0.03693586809106
C         1.65518924368464       1.88124264369033       0.22280309644302
C        -2.59156474743402      -0.33292794124810       2.55503959123756
C        -1.85527253511130      -1.74978238320560      -2.89422734250277
C         3.50959931605094      -2.39664197049848       0.86609650930084
C         2.31569824728092       2.97248224183835      -0.62292702269760
H        -1.40075492832164       0.81288545141515       0.37467762323618
H        -0.22712474487194       0.75341142795084       1.70926863857377
H        -0.55140387390233      -2.16535770683089      -0.55736801813551
H         0.58636488260514      -1.52115800650038      -1.72907395266522
H         0.89549728392482      -2.06589717770112       1.04139780427950
H         1.58108199906526      -0.54390221679003       1.69253711082205
H         0.13881081530844       1.38168393966158      -1.22999659522336
H         1.65656033955346       0.48164226098463      -1.43175021062644
H        -2.04453430512083      -1.59051215045086       0.88240749564872
H        -0.88796713039184      -1.62028728961995       2.20300631454484
H        -2.25094036952986      -0.41684649912053      -1.23993322329730
H        -1.10597047344537       0.22783687120100      -2.43722288086107
H         2.47045862662068      -1.87602395643576      -0.93827303257921
H         3.25878700515651      -0.48800293153264      -0.13546787497717
H         0.93638183108417       2.34743594906561       0.91507396809038
H         2.42086128844620       1.37889361663293       0.83458611143597
H        -3.17136701774616      -1.12453616592245       3.05201763100096
H        -2.12446190155479       0.28319824085202       3.33943443032740
H        -3.29930651217263       0.30294196627088       2.00001691319435
H        -2.70745937838870      -1.38658749971055      -3.48636405646220
H        -1.04107006607972      -2.00635773721148      -3.58889995778882
H        -2.14848646844345      -2.67439258239195      -2.37723029302951
H         4.46727564680632      -2.60338587165815       0.36608001641160
H         3.73059716217066      -1.98997224776578       1.86539635921961
H         2.97030981860432      -3.34828276162460       0.97978180713363
H         2.81169637889364       3.71551912237481       0.01860028561596
H         3.07653290302746       2.54845920867841      -1.29616034413051
H         1.57494432766453       3.50421730364999      -1.24010899757518
P         0.07957400515534      -5.03039946531659       0.04970306552415
F         0.43457812447289      -6.20100809654752      -1.03358599546226
F         1.12879748951297      -3.97924252303419      -0.73622951104895
F        -1.15066876404047      -4.46134199163033      -0.92261661810391
F        -0.28169590407084      -3.77852971702532       1.13670939787326
F        -0.97241953504452      -6.00288812017012       0.83877107279055
F         1.31376307552507      -5.49171539261892       1.03604296358183
