48
C12H22F6N2O4S2 optimized with ADF in AMS.
N        -1.13015803156407       0.13121124464974      -0.09150059051466
C        -2.20425508416000      -0.07705965549471      -1.15375808166253
C        -1.86275716620064       0.84047996902881       1.07106040916645
C        -0.04964058145449       1.03284296842779      -0.68083994711357
C        -3.16439153839265       1.07932367918907      -0.94714839967728
C        -3.27756934099469       1.14665355587918       0.57730942896459
C        -0.55650341600492      -1.17901349243050       0.39024118171876
C         1.08427985001200       1.38828098273872       0.25962405812792
C         0.16972703646478      -1.97457580385632      -0.67522503752454
C         1.97584323541309       2.44546790055834      -0.40277071173676
C         3.08525060988697       2.92124389916703       0.52850269079941
H        -2.69009543180599      -1.04070357526447      -0.93292250662242
H        -1.72872456387119      -0.11778775865366      -2.14189957741924
H        -1.82987965619703       0.17811104051043       1.94519461518433
H        -1.32140362336003       1.76928266842983       1.27491559897983
H         0.32442781714673       0.51705838602114      -1.57702822532332
H        -0.56508696180336       1.94834147162062      -0.99233144298008
H        -2.74404606345110       2.01424319842270      -1.34196367298622
H        -4.12608293815679       0.89708599257650      -1.44721793685110
H        -3.99383518582099       0.39348533524233       0.94446473808190
H        -3.59412676467012       2.14081750193536       0.92546838100450
H         0.11465098245504      -0.93456638861966       1.22613320897345
H        -1.40939293517843      -1.74609614704719       0.79473363880550
H         0.68725661580303       1.81191064834965       1.19717369880297
H         1.68897777392588       0.50115970961672       0.52064769321545
H         0.48118791443768      -2.93406685795151      -0.23555372813359
H         1.07628429063772      -1.46518309454504      -1.02829021985259
H        -0.47335652924239      -2.19875077463119      -1.53831111484636
H         2.41296754878733       2.02848744391780      -1.32899152985039
H         1.35215062342823       3.30270731859367      -0.70354063666837
H         3.73879865988398       2.09030357134982       0.84148068285667
H         2.65926732153579       3.38377941034682       1.43287220670378
H         3.70893873870438       3.67801674687961       0.03106863844847
N        -1.77327253518118       6.02534669130070      -0.62077030258297
S        -0.89655101012835       5.82122573356225      -1.96891445921802
S        -1.75227017226571       4.96816982752997       0.56564531323614
C        -1.86965781316289       4.51503718283063      -2.98492092260561
C        -0.40236655799805       5.53835095823279       1.75788274343806
O        -1.04263603350386       7.03168644070931      -2.75739578120709
O         0.41459617161719       5.20156347315647      -1.79378735673836
O        -1.28941966686324       3.61849243635915       0.18552405383755
O        -2.96953450378357       5.07291942668324       1.35833793435730
F        -1.28056811963652       3.28203829851286      -2.90182520595934
F        -1.87853419265635       4.86851263446584      -4.28720061978229
F        -3.15178154470559       4.38278832829326      -2.56539305083154
F        -0.27439003684726       4.59907973554794       2.74301312803360
F        -0.72035358887225       6.71562283787867       2.33228375626933
F         0.79365214809390       5.66112805747952       1.14190581948227
