34
C8H18F6NP optimized with DFTB in AMS.
N         0.66667835792796      -0.07456745988205       0.46683596849999
C         0.06898493758203       1.29178349124009       0.28403828785125
C        -0.05158800391484      -1.06205420591203      -0.39904680008804
C        -1.43023834693410       1.32110196270015       0.54416193716016
C        -1.56045205757628      -1.06735445206132      -0.17519141186644
C         2.10910562040044       0.03108502981664       0.02141499546382
C        -2.15364322655727       0.32812671233669      -0.36328812277904
C         0.60118475056512      -0.47294383473117       1.90063684610563
C         2.91974152250417      -1.24869033590446       0.13937389910957
H         0.27234444177211       1.59413881069858      -0.74709200202651
H         0.59541851843419       1.96449108067840       0.96346780286708
H         0.36068498721281      -2.04999418006123      -0.18508275914395
H         0.17167894763875      -0.80060998184663      -1.43744558871510
H        -1.77849071476981       2.33634167888647       0.33911006370490
H        -1.64558827466495       1.10193583903999       1.59281230434437
H        -1.79627370861965      -1.44343952557189       0.82374743225446
H        -1.99636410188670      -1.75882871487122      -0.90113160497794
H         2.08665415712709       0.36522332378170      -1.01928061997620
H         2.56460096626786       0.80844933829203       0.63581019768474
H        -3.21885436752345       0.30922365625048      -0.12186094833376
H        -2.04528149517437       0.63611605771633      -1.40825419069268
H        -0.43550155428662      -0.57739708987481       2.20663433153862
H         1.11606882787365      -1.42080991367414       2.02740461849098
H         1.08831594738431       0.29416163492616       2.49643847270456
H         3.92462078538538      -1.02006008266440      -0.21539517210136
H         3.00197815300378      -1.57575542840685       1.17292147059497
H         2.51397395393108      -2.05411978913964      -0.47161761980957
P         3.27117954260029       1.70210455049744       3.39888454850885
F         1.91687521135935       1.18696718813751       4.20983990447360
F         2.24072390183642       2.20282960503454       2.13867981765587
F         3.14179374112219       3.17427238384016       4.07155762938068
F         4.54880915910489       2.16952388084108       2.49575375534664
F         4.23050437590565       1.16310802087829       4.58969624017474
F         3.33291320756847       0.18901899310916       2.65611487119510
