46
C12H14F18NP optimized with DFTB in AMS.
N         0.24646052148486       1.14749729619123      -0.20522784474475
C        -1.11307342872900       1.28474874199967      -0.81826767807157
C         0.68418327924041      -0.22800541774457      -0.60498283544653
C        -1.75382149356471      -0.09116127652163      -0.69364020689260
C        -0.58317628626518      -1.08179195405998      -0.59031301730673
C         0.15889751152193       1.26380137298746       1.27220841198838
C         1.18013076391082       2.18067336630556      -0.72474446327478
H        -0.96380720382085       1.54928772757565      -1.86232105159644
H        -1.66513959879286       2.07808431284732      -0.31660839650215
H         1.45806838385856      -0.57630696781332       0.07991656638009
H         1.09546581557798      -0.15805619194194      -1.61302483012259
H        -2.36979544126112      -0.28798182567976      -1.57250514964688
H        -2.39046833082058      -0.15203152988155       0.19154538460227
H        -0.64847420542313      -1.66797704966669       0.32873183066612
H        -0.57092489048225      -1.77349319571934      -1.43407842903733
H        -0.21863553043251       2.25387022101189       1.52132657941526
H        -0.51728896894285       0.50258953409249       1.65468622108482
H         1.15081056660298       1.12755811508217       1.69973635496868
H         1.26678347833668       2.06807423283467      -1.80231820297945
H         0.77523962883270       3.16366606361391      -0.49487127407952
H         2.15159547135588       2.04736858719182      -0.25212598652070
P        -1.28588707909654       3.17600293266564      -4.31489710128038
F        -0.10368958675048       3.20021357832253      -3.05388517362884
F        -1.82909009104071       1.68435778051380      -3.68218194283799
F        -0.73591023628710       4.63354247072150      -4.92135565664134
C        -2.39919186658043       4.15684715368731      -3.02092833702045
C         0.12992913320015       2.25217920411831      -5.31782891453631
C        -2.71086172131078       2.99099732083526      -5.67052085758556
C        -1.68458711010569       5.04124688260516      -1.95933750196395
C         0.41942618741315       0.77224866608132      -4.95018695371564
C        -2.88328366881007       4.03767318886329      -6.80371748261733
F        -3.16874863530489       3.31149139748208      -2.29963706314357
F        -3.22155314812959       4.98008097093019      -3.68992419950650
F         1.28887304179183       2.90339257096831      -5.10405686476260
F        -0.09582960798238       2.28805178118569      -6.63990840655375
F        -3.88761477412026       2.91671396537833      -5.02078049395001
F        -2.52645485105470       1.79603018614179      -6.26802033297064
F        -2.55709131462953       5.86343424560482      -1.37890060261526
F        -0.69830666395141       5.77015864738224      -2.45333357741615
F        -1.17243546613325       4.26950626760057      -0.97415327372611
F         1.51602971515347       0.33418885864969      -5.56540894606464
F         0.64895974165967       0.65020040996136      -3.62126531950371
F        -0.57734742843251      -0.04280057027254      -5.25720460359497
F        -3.90961691365617       3.70379125898242      -7.58783397790998
F        -1.79314347940934       4.10466098355772      -7.56112300998539
F        -3.12257937622019       5.24864157692818      -6.31064057975254
