38
C10H22BF4N optimized with ADF in AMS.
N        -1.18275027408282       0.51680480979661      -0.02846763022441
C        -1.69700400423941      -0.87263932984311      -0.32076988339218
C        -2.18584702684361       1.04750687318141       0.98485905051563
C         0.20516609188321       0.50241031170920       0.58488572980209
C        -3.21629331220282      -0.72937178697553      -0.37352739786953
C        -3.53765284940614       0.47933225948078       0.54604174998257
C        -1.22122245029266       1.36495026197842      -1.26810135498014
C         1.31755127287902       0.17235576771677      -0.39073694202534
C         2.64311899308885       0.03555498153106       0.36152624181607
C         3.81486143402397      -0.26050235692013      -0.57232569931349
C         5.13787257080553      -0.40105995557387       0.17550987717156
H        -1.38246861607682      -1.50108763768338       0.52553707155428
H        -1.23768370631622      -1.24989597963988      -1.24296049757063
H        -2.10923556084790       2.14362018574858       1.00204077210013
H        -1.86566333493684       0.65233554269067       1.95935021207988
H         0.15397676902960      -0.24206802094909       1.39628604289819
H         0.35107473240256       1.50083203146582       1.02318115517623
H        -3.69643437616157      -1.65730309501788      -0.03221835191986
H        -3.55838031790229      -0.54600720832967      -1.40241998812620
H        -4.13210712476624       1.23458663365739       0.01261588535991
H        -4.11748002545192       0.17716605432405       1.42935963094350
H        -0.68940793947000       0.83806713700065      -2.06880976367420
H        -2.26869583950732       1.52361824036117      -1.54903215786272
H        -0.74730375339913       2.32840327565949      -1.03805173400580
H         1.11033216277801      -0.76527931227924      -0.93820606240285
H         1.41724623784339       0.98829428563601      -1.12406626391684
H         2.56301730404643      -0.76960263103886       1.11549461380557
H         2.83786830305722       0.97301909087531       0.91242216251786
H         3.89355312521946       0.55114205558917      -1.31757336968769
H         3.60650191106633      -1.18805619376697      -1.13750482010263
H         5.38050649737959       0.52533224170826       0.71961573045698
H         5.96636935801930      -0.61470915339521      -0.51631575999092
H         5.09041735469747      -1.22034331981823       0.91098467838069
B        -0.23589191133698       4.08432067654425       0.90933857218862
F         0.71957952339635       3.50409143356854      -0.00294017883653
F         0.11300144947647       5.38660486768263       1.24450694056961
F        -0.29471436899147       3.23877644210105       2.06865396232669
F        -1.52505902806060       4.03406994382374       0.26771292485590
