55
C17H36ClN optimized with DFTB in AMS.
N        -0.32075010412494       1.37418478143459      -0.40458331235640
C        -1.34013942559400       2.18172387225529      -1.15361381782758
C         0.47267236036725       2.29222802950042       0.48300075014794
C        -0.97816805294220       0.30676794421543       0.43150893307670
C         0.60464649523408       0.78546576381799      -1.44275716338389
C        -2.25217015463014       3.00288983028316      -0.24712114541250
C        -0.40511221200708       3.08912446651905       1.43569609971487
C        -1.43882372775545       3.91317979039458       0.67211958612483
C        -1.54468098675627      -0.87096513612871      -0.35356592377393
C         1.71983575235122      -0.11510525857022      -0.90000408249586
C        -2.28354135597346      -1.79759699656063       0.62044288954821
C         3.08527382655071       0.58245019611543      -0.86180532441119
C        -2.83331790622062      -3.03035005490616      -0.10213379901608
C         4.09742158488597      -0.28004254773250      -0.10090055745546
C        -3.56712440856414      -3.95883184673506       0.87067872719205
C         5.46115407034943       0.40972441639522      -0.01495350811834
C        -4.11499230740073      -5.19304479419195       0.15638843433470
C         6.46763410039242      -0.45167383846445       0.74618679384513
H        -0.78757779606912       2.85201034961015      -1.81839734520738
H        -1.92866090757508       1.49341078539205      -1.76413907233945
H         1.16456343751155       1.67024326660182       1.06100274356375
H         1.02889972179059       2.96818754952515      -0.17216588877292
H        -0.22931253559098      -0.04278587307199       1.15259425245267
H        -1.78016780294482       0.78728579814408       0.99270590885428
H        -0.02907493045203       0.23279366836543      -2.13991199829295
H         1.03246987501905       1.63329015070747      -1.98605672556230
H        -2.89651451708242       3.60401766687719      -0.89472661023883
H        -2.89852459864460       2.34977248974032       0.34469825625393
H        -0.89609043843222       2.42293339519761       2.14876685282702
H         0.25228531703803       3.75230802287934       2.00345775204245
H        -2.10827058739960       4.41786315016164       1.37263805510019
H        -0.93206817927559       4.67786586560747       0.07376498074409
H        -2.23697556297590      -0.53301944073735      -1.13189375928974
H        -0.74094394899108      -1.43525322726471      -0.83302472512409
H         1.78618874898007      -0.99146787339246      -1.55186934884535
H         1.48614801409699      -0.47245256691088       0.10352513310995
H        -3.10660367363264      -1.24997470333234       1.09193889822786
H        -1.59377408920487      -2.11180534761327       1.40965843978670
H         2.99583808670013       1.55155099737807      -0.36145407049595
H         3.43537722223270       0.76735394590263      -1.88400209478807
H        -3.51986014862151      -2.71353318869680      -0.89549654986163
H        -2.00728526209137      -3.57405079098149      -0.57323125771168
H         3.71683651682852      -0.46153265017117       0.90859928169085
H         4.20432351463606      -1.24757374691049      -0.60327215076068
H        -2.87860743127379      -4.27194788989393       1.66229899114107
H        -4.39247113258244      -3.41375849190301       1.34127177164345
H         5.84042410635312       0.60830176585797      -1.02435816341161
H         5.34898933496043       1.37282620246560       0.49479961236279
H        -4.63146237404604      -5.83775050672514       0.86780797555813
H        -3.30407342373228      -5.76093660814132      -0.30187599581075
H        -4.81954977380724      -4.90258998178080      -0.62449646990208
H         6.10650073069023      -0.66166218669662       1.75356733819157
H         6.62637582294563      -1.40012773504888       0.23048880915000
H         7.42395710052092       0.06722612240693       0.82048854261470
Cl        1.52062613645956      -0.00915499978969       2.47331761946678
