37
C11H23NO2 optimized with DFTB in AMS.
N         0.29487147567509      -0.12526480683291      -0.06479629646334
C        -0.55736208839596       0.46309855469398      -1.14746619005945
C        -0.44786507609549      -1.27286209067321       0.57089370024236
C        -1.91836130846838       0.92447514424877      -0.63994805076258
C        -1.83646553759529      -0.89642627127242       1.06563899987097
C         0.65643025955610       0.87883782517653       0.99413908727133
C         1.53188833035530      -0.66821896091206      -0.73457211254181
C        -2.68085437073561      -0.25009150849395      -0.02886322193769
C         1.37449080697912       2.11560240166054       0.48290844771078
C         2.60950748824816      -1.17676965485385       0.21180975666189
H        -0.69044299338476      -0.31575185076901      -1.90461857029192
H        -0.00847502870157       1.29254294714011      -1.59782208183270
H         0.16037789202363      -1.60851834584366       1.42004562732250
H        -0.51090141130390      -2.06379420445336      -0.18262978894178
H        -2.46905126941402       1.32903334802828      -1.49392244212818
H        -1.80254590116478       1.72553635682386       0.09388653298499
H        -1.75285966687991      -0.23381426065090       1.93079932808866
H        -2.31381113722447      -1.81902153498794       1.40583328221271
H        -0.26008276606006       1.16297168200949       1.50928651374669
H         1.27389280305134       0.34108278588562       1.71663094274813
H         1.19655453709197      -1.47764537798637      -1.38909476967636
H         1.93412737202027       0.13045846893137      -1.36423612589736
H        -3.62482866790598       0.10400952910386       0.39179798589808
H        -2.90879629169161      -0.98162879679524      -0.81221178188572
H         1.62956438824294       2.71960642389537       1.35367834506840
H         2.29777301183007       1.87094090054834      -0.04055482966512
H         0.74477777753474       2.71787772192844      -0.17179789580151
H         3.33858603604307      -1.72762591813159      -0.38244539237487
H         3.12067142587830      -0.35610718220558       0.71060376084298
H         2.20462567643390      -1.83728848823955       0.97591787110921
C         0.88350101689436      -1.05423726644541       5.30259832014302
C         0.59400919837883      -0.76280652734464       3.81292915792889
O        -0.33302631515331       0.02580060466380       3.54896193973345
O         1.33935744947999      -1.34479262016707       2.98574770533544
H         1.85252533418234      -0.62590510661932       5.55711315337642
H         0.11281448430146      -0.61607436025848       5.93353033398702
H         0.92878896187414      -2.13092251890182       5.45790143377650
