55
C15H20F18NP optimized with ForceField in AMS.
N        -0.40314598156188       0.16358815477033      -0.06512574325090
C        -0.96796188428850      -0.89358196316348      -0.95971918249947
C        -1.46625688442749       0.41271584037180       0.95676720714610
C        -2.43430270455253      -1.07407571368294      -0.61583775144521
C        -2.50852934438111      -0.68144930026173       0.83230999687750
C         0.83350572618151      -0.33956870317410       0.61753725756166
C        -0.14980363910080       1.40799228257566      -0.86132525244747
C         2.02274748916740      -0.62090831282666      -0.33186493962497
C         0.45569051507590       2.57044726761613      -0.05390836993765
C         3.17529601248639      -1.28057998931986       0.41972446119496
H        -0.47855173419958      -1.88263013928575      -0.80429153457191
H        -0.86144347492030      -0.65724050101511      -2.04320754252103
H        -1.99418042823140       1.37967185988303       0.78781337309302
H        -1.07650953182813       0.44644510779539       1.99986658120451
H        -2.77363826716009      -2.12094546578580      -0.77368628875715
H        -3.05425507251419      -0.38177945948598      -1.22772457670820
H        -3.52404909085630      -0.32254104872011       1.10813330011419
H        -2.22755553673301      -1.54583116697125       1.47388663794709
H         0.59503265371274      -1.27768647425576       1.17121499248073
H         1.17202597081148       0.38300814260883       1.39285773102414
H         0.52308406360321       1.19798977834998      -1.72102050053141
H        -1.10227282897326       1.76766880152358      -1.31470938686157
H         1.71898567699559      -1.28870609004113      -1.16457581272401
H         2.40356673310820       0.32546651346157      -0.76803302785283
H        -0.13215776906108       2.78538149109732       0.86123065900021
H         1.50657531410172       2.35663373499193       0.22820306630591
H         0.46016891988634       3.48603989029684      -0.68244881843974
H         3.54824569333951      -0.60657457472018       1.22012354870083
H         2.84376248693612      -2.23807041278918       0.87437189958966
H         4.00784343214395      -1.49113555217355      -0.28456754592452
P         3.23638624018265      -7.66300153137110      -1.53820557812544
F         2.31120517891447      -6.26443335957743      -1.92491119872247
F         4.35738905631627      -8.05520921036891      -2.78723593005007
F         2.43900906329348      -7.31210987805935      -0.05471660344245
C         4.57494436237885      -6.27292967337451      -1.34752987433301
C         1.83626883358653      -8.24856836726168      -2.73926156139232
C         3.60857389252051      -9.25200136747458      -0.50250477490847
C         4.29082622456560      -5.13712168430915      -0.32767695100697
C         1.88562095426022      -9.71540786257381      -3.21496727411491
C         4.65275773920901      -9.12462114653606       0.62388263769220
F         4.75804300240837      -5.65125185766211      -2.57677412293428
F         5.78583104944172      -6.84085579815175      -1.00592002868104
F         1.86029971108417      -7.47730055301865      -3.89785793263443
F         0.60827590431285      -8.06367900678590      -2.11946736562828
F         4.08873050618807     -10.23264309501815      -1.35200481038373
F         2.43413106392270      -9.73346095150531       0.05981905390111
F         5.41657356441094      -4.33834317439883      -0.22867242486160
F         4.00776048687133      -5.61788647231792       0.93264058362917
F         3.24613000478778      -4.33302763926523      -0.74573384655718
F         0.91243026337805      -9.90017355517014      -4.18175839294798
F         3.10690307929562     -10.02470468162341      -3.78361212785145
F         1.61228341082600     -10.59236642595816      -2.18500978116718
F         5.92914674043396      -9.04353640286872       0.10092942986532
F         4.60036177010219     -10.25925900462823       1.41421255332161
F         4.41205393164822      -8.03750920879074       1.43413133679142
