32
C8H15F6N2P optimized with ADF in AMS.
N        -0.47022925447360      -0.05970929948632       0.64205178341106
N         1.68350337209734      -0.24046924258691       0.45374796400836
C        -1.79053439086932       0.45005335255382       1.05710860389028
C        -2.69613625885241       0.73581929825009      -0.13660563192058
C         0.70047567474102       0.44080782837475       1.05426710997630
C        -0.22969422091954      -1.08255888224426      -0.25395937919420
C         3.11767269400982       0.08336545767950       0.55700618397973
C         1.12512715655537      -1.19262220510635      -0.37562986330613
C        -2.11964589540997       1.77239663827925      -1.09458617658931
C         3.62987871316421       0.76067324030870      -0.70354767896566
H        -1.58877451282644       1.37792536238477       1.61134298145040
H        -2.23448435983789      -0.29505587692992       1.73648967885350
H        -2.93182429219104      -0.20654067386102      -0.66469453144350
H        -3.65350549779364       1.09047972724921       0.28458906228185
H         0.83148709768897       1.29719901543511       1.70769737926906
H        -1.03105730375867      -1.63570266545467      -0.72660024504085
H         3.21828284779897       0.75242492296844       1.42233722147041
H         3.64286001775384      -0.86057086328802       0.77265197993933
H         1.73212252871453      -1.86119252640074      -0.97359463683913
H        -1.16719587691269       1.43596989395230      -1.53000601065285
H        -1.91254382184326       2.71979999979958      -0.57546302601300
H        -2.82208042339280       1.96813428092682      -1.91841675154470
H         3.53316342304098       0.10399167968343      -1.58123626930072
H         4.69472709903305       1.00141948353951      -0.57040514715308
H         3.07535162489411       1.69333636038724      -0.87770539345808
P         1.04365194157137       3.91425386759489       0.54845967346036
F         2.27733063199698       4.50743943370475      -0.34921868376144
F         1.17023610152321       5.12902124812490       1.62870370968096
F        -0.07348946662089       4.72974533596797      -0.32634652609061
F        -0.19027207876328       3.22253930366074       1.47047636457402
F         0.91481718801951       2.61693552566953      -0.51384783162553
F         2.13813251636215       2.99638935896293       1.44708904255371
