26
C8H11F3N2O2 optimized with ForceField in AMS.
N        -0.52701292597703       0.18803867456079      -0.35918593644258
N         1.65949490099190      -0.06902941048796      -0.05325729795706
C        -1.92656517998923      -0.10306402968944      -0.65723719996591
C         0.50683311796891      -0.67552651779914      -0.39770482193715
C        -0.01103363876278       1.37528301634942       0.01875734516181
C         1.34690801876361       1.21533380810194       0.20687898059698
C        -2.72972599756584      -0.21813874978209       0.63342010834779
C         2.98056125394315      -0.67562891269406       0.04453754479610
H        -2.34761347341649       0.70470843728407      -1.29443663343648
H        -2.00465068345080      -1.05949914344611      -1.21907133488059
H         0.41948734726323      -1.72368058400306      -0.65691713123567
H        -0.57904250021596       2.28719519247329       0.15057222947871
H         2.05121538399283       1.97612414939392       0.51720413783963
H        -2.32977550297664      -1.04612518060069       1.25654385438524
H        -3.79352657976267      -0.42829392153042       0.39421025709671
H        -2.67092207255829       0.72734059686282       1.21171584984373
H         2.92986935218464      -1.76061552004716      -0.18980411505648
H         3.67076349848205      -0.18301503640672      -0.67234030569838
H         3.37221146354180      -0.54915507150599       1.07599746312054
C        -4.67073726037322       4.94644641761113      -0.41795972146136
O        -3.80270147379563       5.63207614260658       0.09881715000690
O        -5.54795181422380       5.48117691641184      -1.07696382873180
C        -4.66834459751732       3.45661837852285      -0.24345645386675
F        -5.80873963342110       3.06967845482578       0.43563904720655
F        -3.55678181663060       3.05569389831021       0.47581553823736
F        -4.64722163339471       2.84370242707822      -1.48264626304784
