32
C10H16BF4N optimized with DFTB in AMS.
N         1.11749812596678       0.27909154130214      -0.69289121236764
C        -1.20132426009826       0.08512690577468       0.15251880210458
C        -2.64003979458066      -0.23307325156184      -0.26355076857277
C        -0.27440732118673      -0.01529829013793      -1.05869754136871
C        -3.58591453364309      -0.17613565611196       0.93993866369571
C        -5.02826124636689      -0.45873830845702       0.52339961525033
C         2.07202714957152      -0.64524628148948      -0.90811872292603
C         1.43058965614708       1.50568425667800      -0.24020795972077
C         3.38809162401094      -0.37931421179496      -0.61840555596232
C         2.74497789760545       1.80526121074879       0.10191621251838
C         3.73683621327737       0.86911350234899      -0.09999910107081
H        -0.86738007031853      -0.60978211158059       0.93042755148517
H        -1.16178082311952       1.09986144766747       0.55700504347413
H        -2.68054536912569      -1.23011484579598      -0.71557078564959
H        -2.96166596194267       0.49186413063622      -1.01763848304979
H        -0.30546261182422      -1.02147557466363      -1.48355541889054
H        -0.56793007655737       0.70719891416253      -1.82658837635743
H        -3.52782142092317       0.81551356181727       1.40038235171171
H        -3.26989660528524      -0.91182293028743       1.68774064068286
H        -5.36848602280057       0.28512239065676      -0.19782101635222
H        -5.68208573396863      -0.42355267322488       1.39483273537100
H        -5.10880433253748      -1.44642794097061       0.06736601499460
H         1.75043026878591      -1.59815063733327      -1.31083025710851
H         0.61652809098469       2.19271103703178      -0.05184716517674
H         4.13777377493877      -1.13910827246901      -0.79731935200559
H         2.96997045756912       2.79227777316646       0.48415158822038
H         4.76948416341176       1.09126251422583       0.14014077618556
B        -0.05098715535412       2.93629623265119      -2.52180086812592
F        -0.80280351476460       2.89864514384508      -1.32245483440160
F        -0.53736018339571       1.95387463352451      -3.38032188754421
F         1.29567211350138       2.54165886277168      -2.14358817983301
F        -0.02816937167758       4.17864090826920      -3.07442233231021
