34
C10H22ClN optimized with DFTB in AMS.
N        -0.43709941040084      -0.04342587660680       0.00309749670572
C        -1.30731304337579      -0.66487170192146      -1.06971472702644
C        -1.39049124734955       0.45734736700155       1.06965419131651
C        -2.69054292949229      -0.07366356731615      -0.86215073435188
C        -2.77916637195861      -0.01486110684060       0.65796232448951
C         0.33282545420173       1.09050053994783      -0.59790022096652
C         0.46694572354946      -1.08146736855807       0.60509022532377
C         1.27690557441463       1.79885531023195       0.37401522875126
C         1.43002557137485      -1.72061304218235      -0.39383835100454
C         1.85440549974489       3.04819686867627      -0.29050704675255
C         1.88373456960639      -3.07448906924341       0.15370751536928
H        -0.88160469843513      -0.46524238727198      -2.05226658575206
H        -1.34589363796973      -1.74194224158263      -0.87580816368148
H        -1.08125098447186       0.06600844553723       2.03829857356764
H        -1.34070508326353       1.54767238568945       1.09260332511678
H        -2.77242494595166       0.92370681162190      -1.30516608839914
H        -3.45367911008561      -0.72148949347238      -1.29379659522244
H        -2.96533136594487      -1.01806258310090       1.05180230634940
H        -3.54829885044713       0.67131735033679       1.01365403251065
H         0.90666373766938       0.68751299824599      -1.43602034977252
H        -0.40248294386306       1.79777665376187      -0.99209262032100
H         1.01371378417414      -0.61346262556588       1.42617563992406
H        -0.20669118619735      -1.84724616441069       1.01125614493826
H         0.74656666168942       2.08626458695843       1.28546549833696
H         2.09661726782962       1.13301642460402       0.65472291009533
H         2.29844975074107      -1.07484343112788      -0.56189159857816
H         0.93482898732910      -1.87711619954084      -1.35520548370426
H         2.39751446281034       2.78246286911532      -1.19790615996669
H         1.05901726664956       3.74704043801609      -0.55148483557318
H         2.54203082733966       3.54308388220737       0.39426240304556
H         2.38354567508349      -2.95069156393258       1.11470063683402
H         1.02090525621371      -3.72727998340466       0.28719251640647
H         2.57661801383375      -3.54226213494730      -0.54506992489105
Cl       -1.87572038484818      -3.22399850782550       0.78716667188274
