37
C9H20F6NP optimized with DFTB in AMS.
N         0.67884790921692       0.00232148364722       0.07083886272862
C        -0.64783778532428       0.69901497390473      -0.02484949305064
C         0.59186311767649      -1.33425757539091      -0.61213707374207
C         1.67594393895879       0.87271933074900      -0.64847985781819
C        -1.80195072892221      -0.13401889964082       0.52224512445206
C        -0.54457982308261      -2.19704373100700      -0.08418313503433
C        -1.88510028342946      -1.47934425178050      -0.19773551016254
C         1.08304735429025      -0.13701970872818       1.49696832994631
C         3.10847673880311       0.34015160702222      -0.68299271789586
C         3.98874179730091       1.31679475512596      -1.46061141273447
H        -0.81886688192263       0.91488900457978      -1.08342304360656
H        -0.56005897172226       1.64329585839085       0.51815157161027
H         1.53979356639978      -1.84688712693547      -0.45705020477200
H         0.45543361244068      -1.13281760031152      -1.67869326492704
H         1.65291660541829       1.84821587244672      -0.15328046777980
H         1.30553083218244       0.99625422125607      -1.67039770518707
H        -2.72027245085993       0.43771197464908       0.36424311237739
H        -1.68710277399628      -0.28892363564874       1.59794250847389
H        -0.35254235148483      -2.48220033831849       0.95151081823349
H        -0.55048895898651      -3.11346279717796      -0.67873121284841
H        -2.67300229530677      -2.08712472939976       0.25244215964656
H        -2.13784018657776      -1.31680324047523      -1.25088767786374
H         2.03753062826288      -0.65232783518102       1.54589055043396
H         1.16087603607650       0.85572537726458       1.93697632810872
H         0.34401337007536      -0.72633479778332       2.03037908789796
H         3.50200329774546       0.22750702458277       0.32836707090524
H         3.14144870343268      -0.63826477872554      -1.16472366739362
H         3.63158472968695       1.42732837741782      -2.48528999744612
H         3.99204615485368       2.29824861798775      -0.98425533376839
H         5.01024442501763       0.94065860866610      -1.48647340417713
P         2.81318091442636      -3.62348980393272       1.44446941473268
F         1.49825608037153      -2.81546501218690       2.11915020150546
F         2.31403171115928      -5.01261307743037       2.12008890381209
F         1.87324600402025      -3.91429123995928       0.10021539887136
F         4.08171391944135      -4.34405165610522       0.73066054758872
F         3.26491244860606      -2.14800828045879       0.73272146634275
F         3.70241945135186      -3.23416242801291       2.75486542104044
