47
C15H25F3N2O2 optimized with ForceField in AMS.
N         1.36361884585238       2.27464421840669       0.04457839914029
N        -0.83918559396082       2.43444718512310      -0.21589549171275
C         2.74470533673952       1.86673483654756      -0.20315937430268
C        -2.17293564229380       2.23972916638011      -0.78200633567807
C         3.01585604343885       0.46611722674317       0.36663420085959
C        -2.41343826299831       0.76197436906848      -1.12576130373459
C         2.08148672130689      -0.59269885773437      -0.23986376425050
C        -2.34924169891363      -0.13348729369109       0.12058105779409
C         0.33721853913549       2.18509793381736      -0.82364271988774
C         0.82043108791031       2.59792908268345       1.23544644885158
C        -0.54564140189864       2.70558938454055       1.07183364066767
C         2.43170117822527      -1.99908856693321       0.25435070621137
C        -2.55260110620158      -1.60674546317401      -0.24551130846526
C         1.45400785316134      -3.03131002112954      -0.30114239329589
C        -2.46557512775140      -2.49562064647166       0.99163966895381
H         3.43422846116199       2.59912981490851       0.26959916872413
H         2.95044586070379       1.86926836550683      -1.29615004064827
H        -2.27157094715642       2.85429120671470      -1.70216989067370
H        -2.94811169012148       2.58207468627939      -0.06126254083038
H         2.88918972611175       0.48693940811464       1.47107096912623
H         4.07207644383452       0.19691296352884       0.14750851641514
H        -3.41614212473714       0.66571226075553      -1.59566201550337
H        -1.65797180353001       0.42714046811843      -1.86960890784518
H         2.15542858618312      -0.56249363356354      -1.34914062142917
H         1.03317730887903      -0.36784897510027       0.04995461537324
H        -3.13444387835330       0.18251307487774       0.84163659419830
H        -1.35889677658458      -0.02276928694086       0.61171834143052
H         0.43577583819256       1.85842974207564      -1.85227498021148
H         1.36897920038982       2.68663830731953       2.16437525097212
H        -1.27593405127417       2.89393779689446       1.84819882711004
H         2.39150887497358      -2.02763913324237       1.36516114240251
H         3.46089986496548      -2.26486451464147      -0.07027342321147
H        -3.54865212628451      -1.74287958058568      -0.71929362106485
H        -1.77103281805476      -1.92258201396919      -0.97052981209011
H         1.48198900057874      -3.03420237630625      -1.41161860824597
H         0.42219392734946      -2.80181351808119       0.03468644473782
H         1.72774702199204      -4.04220280864753       0.06643071638459
H        -3.27575850158563      -2.24166398962999       1.70777034297220
H        -1.48336768540667      -2.36376473159883       1.49190628135501
H        -2.57139418786120      -3.56006957196356       0.69479286448835
C        -0.45825215230576      -1.86182217636453       5.99142899766661
O         0.15369122658721      -2.38345608539229       6.90982789444618
O        -1.23364055735973      -0.94897336366591       6.22533211790234
C        -0.27022342917590      -2.33939512201166       4.58260043646776
F        -1.47333971611061      -2.81733996678217       4.09886962087483
F         0.67056037055506      -3.35341002221817       4.53311857943407
F         0.15694161929181      -1.28944203656536       3.79010987662106
