34
C10H21NO2 optimized with ADF in AMS.
N        -0.06462132344211      -0.11671553902394       0.23330874657922
C         0.98864127326224      -0.82844216713313      -0.60225019961883
C         0.69325234237961       0.42531745001500       1.46879311093884
C         2.29780513428016      -0.15475459416579      -0.23099546974037
C         2.14652653317432       0.00408854621447       1.28211932919092
C        -1.15256688107192      -1.06247094264672       0.70294692826223
C        -0.63767846052490       1.02658308675419      -0.59538195789309
C        -1.98807344987079      -1.63953866520885      -0.41903213822213
C        -1.73838765845962       1.80259601820007       0.08739626363078
H         0.71736967095786      -0.77086753619139      -1.66370777538562
H         0.99587982750116      -1.88178232653066      -0.28423381383250
H         0.17750611777381       0.04264002490015       2.36172216790089
H         0.53914729923292       1.51124027901045       1.50839785349922
H         2.38419270126885       0.82708481296815      -0.72459600797708
H         3.16436602127124      -0.76259803150869      -0.52861309859809
H         2.34232341141739      -0.96171418781894       1.77792486254748
H         2.83270084693150       0.74739516110153       1.71168965536113
H        -0.61741733183264      -1.85741516256427       1.24666961016022
H        -1.72435929995377      -0.49112443863014       1.46268540382501
H         0.22374665271085       1.67455182148543      -0.81942667838080
H        -0.97245102223765       0.57135657250114      -1.54032503229906
H        -2.68382582582739      -2.37118939412283       0.01824321993340
H        -2.59741020166454      -0.87460026091119      -0.92024567067069
H        -1.38681356167827      -2.16764487995373      -1.17585565010638
H        -1.97884761829691       2.67027257208343      -0.54653303091615
H        -2.65080955109482       1.20191761635401       0.20351697485185
H        -1.43369584573689       2.16487282508883       1.09276544818216
C        -2.16632695977681       2.05465899943094       4.93535449232317
C        -1.57404968960026       1.65539295464387       3.57583065720323
O        -1.79691805515392       0.46007417500239       3.18876302572924
O        -0.93213287754055       2.55148432742503       2.94891389523783
H        -3.16524334148161       2.48981040290486       4.76942438030384
H        -2.28423586237288       1.17856087912107       5.58884288307914
H        -1.54615997174364       2.82099397640526       5.42167463780101
