36
C8H18F2N2O4S2 optimized with DFTB in AMS.
N        -0.96544718227706      -0.20470327204468      -0.64934480499631
C        -1.87767297935675      -1.16716493885449      -1.36010406832381
C        -1.24880367865568      -0.44903473958657       0.80008079506939
C        -3.13504601623116      -1.26533815611069      -0.49836092105553
C        -2.75592250295996      -0.67441168971163       0.86632966939636
C         0.45250416135775      -0.50035404125631      -1.02207158437568
C        -1.31970902990157       1.19480367437556      -1.01111692714081
C         1.47658889670572       0.40615734130646      -0.34113673185067
C         2.88841634065237      -0.05280935298352      -0.70407758684796
H        -1.36247698018317      -2.12885059398657      -1.41479575130125
H        -2.06564734205290      -0.80080681080352      -2.36844205228972
H        -0.91100969388289       0.40252936059295       1.39055362511427
H        -0.69861092988614      -1.34419535836440       1.10087563858690
H        -3.44103658945117      -2.30917193889111      -0.41014634005268
H        -3.95637802419701      -0.70446258377830      -0.94635494551062
H        -3.27880365635727       0.26978340864831       1.02938689028386
H        -3.00148826591772      -1.34994137633331       1.68692921499252
H         0.51826086336446      -0.39934319084702      -2.10873888281202
H         0.64487257529355      -1.54333837827929      -0.75528185014658
H        -1.04172259199817       1.37179240334191      -2.04768909394397
H        -2.39175064149823       1.32412185992534      -0.89646052131068
H        -0.79416946381092       1.88397411208203      -0.35453254463290
H         1.34234214160995       1.44069526733238      -0.66572688388527
H         1.34911454548867       0.36836649927522       0.74419693334947
H         3.61873920045618       0.59622403633322      -0.22267487262770
H         3.05769859056463      -1.07685757356054      -0.36991635054865
H         3.03914891975943      -0.00727316067925      -1.78280715280843
N        -3.61803033783566       2.41898637490991      -2.73779985474494
S        -4.86478682184277       2.57209322326598      -1.76247238974125
S        -3.54445688727332       1.09626753353320      -3.61209510115328
F        -4.43921479224656       1.51193661839658      -0.54373960482934
F        -4.30351865950443       1.48576857353829      -4.97212603317461
O        -4.76621965706891       3.83989442608399      -1.12574508590577
O        -6.12592755974494       2.08440843199924      -2.20111265523063
O        -4.23265155751142      -0.06354905719336      -3.12411723497377
O        -2.17288468780693       0.92410784452398      -4.00690291047789
