40
C10H19F2N3O4S2 optimized with ForceField in AMS.
N         1.87740978798395      -0.90655128898411      -0.21052336853949
N         3.11021557546184       0.94229590539703      -0.13973802154460
C        -0.39648352278864      -1.87115470889067      -0.06418440044984
C        -1.07357364888268      -0.52372517873306      -0.35482051680595
C         0.99537624495578      -1.96351441855157      -0.70480670602700
C        -2.48031093262510      -0.46578519154419       0.25024191981626
C        -3.12066564294246       0.90633894042661       0.00780019994356
C         2.38235698676049       0.12136625767942      -0.92129745109679
C         2.30876741567027      -0.73396186435671       1.05595895975944
C        -4.52694468218315       0.97282220258812       0.59424559155608
C         3.06930003224071       0.41676797540910       1.09998632135367
C         3.77782524866866       2.17485338563121      -0.53730510525055
H        -0.30755818795045      -2.01912177699597       1.03428569784055
H        -1.02522599876584      -2.69440445943386      -0.46899009216277
H        -1.14020278454672      -0.37342181562115      -1.45508860335211
H        -0.46202938027134       0.29877897997976       0.07706166437014
H         0.89682884632435      -1.89276125328530      -1.81074985384536
H         1.44363883094719      -2.95267658398123      -0.46951945824249
H        -3.11214335630343      -1.25655525434293      -0.21179503347266
H        -2.42045609650805      -0.65502311795173       1.34529272935998
H        -2.49862669034991       1.69884324363742       0.47923631110659
H        -3.17706798571473       1.10684627438257      -1.08458917830601
H         2.20638310432651       0.27887277338070      -1.97833941424154
H         2.07440919758617      -1.38537013018674       1.88783242611501
H         3.54508384190273       0.84431281386646       1.97267041285770
H        -4.49612295596915       0.79912117750860       1.69116916750546
H        -4.95892454845112       1.97835945054904       0.40550593188756
H        -5.17966786871493       0.21006603790541       0.11838453650816
H         4.86764714185314       2.08807825547678      -0.34431530325089
H         3.61714320013106       2.37364955175268      -1.61858985681605
H         3.36873425775179       3.02525896882598       0.04806120276673
N         8.03384454014301      -1.24532641176094       2.12212240126979
S         6.57740481924588      -0.61929558221816       2.52582329076364
S         8.52845169228289      -1.31038307546883       0.56328925988008
F         5.37039458937377      -1.65080993153973       1.99635860787103
F         9.21429406045570       0.15752911845847       0.14368718491773
O         6.48813585886140      -0.47014914842976       4.01789188486853
O         6.39913256167936       0.72072152504397       1.86923679128304
O         7.36040404179279      -1.58186639874236      -0.34305114648931
O         9.55608706626825      -2.39498356148033       0.40829905649269
