25
C7H10F6NP optimized with ForceField in AMS.
N         0.16303882472944       0.01333891720855      -0.36621731477125
C         1.60773800748513       0.01530199540552      -0.62779650829697
C        -0.50554432997731       1.19900803031829      -0.22935684914466
C        -0.50076841549050      -1.17567685591066      -0.23859219408687
C         2.38261209973305       0.00166293057183       0.68528541177058
C        -1.87655460925609       1.21275352215443       0.03994155391169
C        -1.87106059801454      -1.19848874326191       0.03174208622091
C        -2.56093937987049       0.00500518692567       0.17134498581849
H         1.89477680990173      -0.87268850882042      -1.23358160282247
H         1.89607894816422       0.91402863865391      -1.21655420449553
H         0.02181046309532       2.14110118502345      -0.32212082527280
H         0.03093885539259      -2.11267859927982      -0.34088671774290
H         2.13324757139952       0.90355700590473       1.28418055040243
H         3.47296308324264       0.00050070759919       0.47761930686699
H         2.12843606583808      -0.90874957519064       1.26928200445826
H        -2.40296237222051       2.15236492486801       0.14854125963053
H        -2.39241379900685      -2.14175101640135       0.13410514762426
H        -3.62278939410715       0.00180234212384       0.38221428692221
P         0.66006437377411      -5.48808178272280       1.46352266397374
F         1.25294765201278      -6.75335913075181       0.46404621888829
F         0.19328841308917      -4.66543839925020       0.03062372011445
F        -0.90641625569014      -6.19067715576620       1.52704497708904
F         0.10058972460834      -4.19353867433962       2.44530350562513
F         1.10816307851021      -6.42091771349721       2.83508645636685
F         2.19852703995726      -4.72343140506476       1.43469258794961
