29
C7H14F3NO3S optimized with ForceField in AMS.
N         0.59790178630569       0.01072729542773      -0.00125029274670
C        -0.26712335223744       1.10146355482936      -0.52801967498691
C        -0.31764360626932      -1.03724700284336       0.52753047420849
C        -1.69250100602042       0.81989503864218      -0.08993444432040
C        -1.73293629826982      -0.67235090227160       0.11658454569331
C         1.47360660601945       0.52224914525458       1.07964066899613
C         1.44651790655390      -0.54132880715650      -1.08384231925016
H        -0.25617143493827       1.14192113924050      -1.64253356464933
H         0.04219337906730       2.11234686421748      -0.17470334474742
H        -0.29018812376268      -1.09431788462092       1.64099802965653
H        -0.07010710780530      -2.05902633158771       0.15708387581054
H        -2.43120759445852       1.14362436926479      -0.85540284591571
H        -1.90068779247601       1.33822031305425       0.87200361748682
H        -2.47454807620566      -0.95208353081201       0.89635462408073
H        -1.98899099174883      -1.17809168842934      -0.84060393064622
H         2.16538405723861       1.30490022094465       0.69495563005208
H         0.86996431566167       0.97300250965139       1.89961140535899
H         2.08705435633002      -0.29884344234330       1.51393534218302
H         0.82090704834430      -0.96583544593245      -1.90139168987320
H         2.09475847121490       0.25078887885838      -1.52151258837457
H         2.10336603329249      -1.35383359434703      -0.69996291411726
S        -2.23843017493767      -4.50141497463585       2.17174306614014
O        -3.69956612538886      -4.78146288055138       2.55306591165953
O        -1.84294538212531      -3.36075898608352       3.12130837688485
O        -2.36539954330737      -3.79650029596009       0.81380720842322
C        -1.14091195961355      -5.94803983866469       2.18952110407805
F        -1.54376232094343      -6.84518946099305       1.21883021942614
F        -1.19704771499186      -6.55716471784357       3.42852800857668
F         0.15644253167198      -5.54724841410890       1.93343255031265
