51
C13H24F6N2O4S2 optimized with DFTB in AMS.
N         2.48515865651537      -1.02866175064491      -1.06780815642825
C         2.04753447866613      -2.40485114498638      -1.46792092449458
C         3.42836768997414      -0.58933909428340      -2.16190934469860
C         1.33966574236435      -0.06770490545403      -0.98934785015063
C         3.27678804959702      -3.02842438290192      -2.11361498684061
C         3.97985078833559      -1.86051877315932      -2.80961841629749
C         3.20784975681317      -1.07745078801589       0.23331693774903
C         0.29369912494064      -0.42778121986870       0.06365489924588
C        -0.88369733678559       0.55073372397211      -0.02755700208258
C        -1.94975200600720       0.22552445851409       1.02310010401786
C        -3.12659649756005       1.20272959942419       0.93769495987037
C        -4.19237387397141       0.88051670796300       1.98336998676884
H         1.23243706465054      -2.29986359119552      -2.18867169600635
H         1.69302939121780      -2.94617242517880      -0.59109100893034
H         4.20223205339100       0.03673787968796      -1.71757604182388
H         2.85872422135701       0.00334503094073      -2.87992185127703
H         0.87450130344532      -0.04156645113084      -1.97859211311055
H         1.76810684754967       0.91546576939463      -0.77753936135245
H         2.98583682419908      -3.80769241600412      -2.81869125541916
H         3.93009667962617      -3.47336723993271      -1.36002790127697
H         5.06019544592989      -1.92407369272225      -2.67468303876915
H         3.76310069715161      -1.85433486642154      -3.87983309016567
H         2.56748016527755      -1.52569899164795       0.98919763475125
H         4.11319906686880      -1.67060920359958       0.10987659255852
H         3.48555647526463      -0.06478456481537       0.51854970465199
H        -0.06790876544917      -1.44724136069449      -0.09644256964303
H         0.72732160344818      -0.37315548922791       1.06524453451018
H        -1.32507771351206       0.49688798149811      -1.02845223717473
H        -0.51841167735392       1.57187603140284       0.12325788368422
H        -1.50265306594297       0.27650340350530       2.02155393122542
H        -2.31025033994449      -0.79744757150180       0.87020820903357
H        -2.76210023107118       2.22399042903009       1.09066330662602
H        -3.56927906950184       1.15167452583297      -0.06277565843513
H        -3.77373649411663       0.94553016713191       2.98844739917293
H        -5.01756874976398       1.58810941435486       1.90405911886959
H        -4.58247546688913      -0.12711832172350       1.83402019577958
N         6.07324631275013      -1.51982429828841      -0.57024609107439
S         6.71655376095238      -0.07203765763764      -0.33061292944771
S         7.04525800476094      -2.79812930518363      -0.71512408718435
C         7.45543784051622       0.48431160242798      -1.96188854922610
C         7.72716746198412      -3.17279033626036       0.99035533759692
O         5.57415906055768       0.81360302702188      -0.18121825343754
O         7.76905224590472       0.00073275113492       0.64655133699883
O         8.18183339782976      -2.59830097728505      -1.57514806199917
O         6.15529560974143      -3.90408140253819      -0.99073963051880
F         8.71145085341785       0.12917815267696      -2.10011274467010
F         7.36321121650735       1.80242683977307      -2.04988749172478
F         6.73210221875953      -0.04789664198220      -2.94888701957041
F         7.86676432290088      -4.48284278555993       1.11653341790165
F         6.86414501707897      -2.75033120570526       1.90608897171546
F         8.89199744052394      -2.59457155943598       1.18360968310244
