52
C14H30F6NP optimized with DFTB in AMS.
N         0.95916817438383       1.03576963103076       0.02755595437827
C         1.91305519022997       1.64452793768725       1.04134613415422
C         0.52540242889330       2.17085767808622      -0.86989250770211
C         1.67252657425589       0.00482433117145      -0.80678459865765
C        -0.21488890730423       0.45081653380081       0.74805253378269
C         1.87836254030485       3.14920778386650       0.82172490139379
C         1.55330383589832       3.27279742146098      -0.66152423923232
C         2.16687702901083      -1.20597859034761      -0.01947935161443
C        -1.25929040524611      -0.18414566998667      -0.16888307794485
C         3.20140868816394      -1.96429553298616      -0.86237871284565
C        -2.48515821518593      -0.59454159742086       0.65570994928522
C         3.86662306990790      -3.07400619263390      -0.04382466355424
C        -3.54253357923922      -1.26460828462483      -0.22755298610578
C         4.92786188244286      -3.79976276068253      -0.86833207376321
C        -4.76574031954871      -1.67645461298872       0.58905019684415
H         2.91002581150922       1.26154707730095       0.83540789845607
H         1.61095363794750       1.34956842173543       2.04563763723661
H        -0.46298718611047       2.50412551586845      -0.54507519279183
H         0.46461186787179       1.81889106209895      -1.89932382890164
H         2.51753362321127       0.52223301898653      -1.26336529082966
H         0.98892862475104      -0.30866421333471      -1.59917534327636
H        -0.66602695525035       1.26280162617300       1.32517041657107
H         0.17018997372143      -0.29588365990402       1.44599849048042
H         2.84675162526935       3.58597729730857       1.06723464493158
H         1.10188164885577       3.62080902710863       1.43052475237264
H         1.13908712753392       4.24681289513493      -0.92320830213753
H         2.44572874115535       3.08674592048977      -1.26199732479146
H         1.33257644767224      -1.86903423417163       0.23084912580107
H         2.63888482870392      -0.88457520258752       0.91084840899688
H        -0.84497485800617      -1.06951701566325      -0.65764314370659
H        -1.56410711276990       0.52103695725692      -0.94683213688444
H         3.97022096171255      -1.26307777006891      -1.19894925736212
H         2.71482888748198      -2.38742543031306      -1.74789165973833
H        -2.91479013319748       0.29139548316772       1.13535305269347
H        -2.17531636113624      -1.28623937169203       1.44611226776703
H         3.10862009756057      -3.78884292734035       0.29672735555083
H         4.33518840984455      -2.63165967562480       0.84077867719438
H        -3.10796644592206      -2.14845043585861      -0.70606052039650
H        -3.84712801631248      -0.57102342771577      -1.01839763581033
H         5.40123642740403      -4.57688716608684      -0.26793404232766
H         4.47961425351463      -4.26368281123661      -1.74840150161167
H         5.69595247073919      -3.09895171494268      -1.19682205815460
H        -5.50318450677761      -2.14907192603887      -0.05940986942163
H        -4.48377452858903      -2.38442584457108       1.36929584170885
H        -5.22314139636267      -0.80491923966139       1.05900062474717
P         5.50914947046691       1.43792835511120      -0.12560101741330
F         6.77897606490041       1.17483754724094       0.84967398294904
F         6.03416322081353       0.33125987595613      -1.20824107583320
F         4.64759950616786       0.22537887005031       0.66014225475320
F         4.14287845728146       1.69669372778173      -1.09585893580085
F         4.86354942062208       2.52390757836858       0.95829158113495
F         6.27405925815432       2.64115634924066      -0.90597316387367
