67
C19H28F18NP optimized with ForceField in AMS.
N        -0.69057972734161       0.52861613036141      -0.20551906801613
C        -1.66827887585459       0.27098298018369      -1.31295137800004
C        -1.24000949393857       1.61070101459740       0.67607650019943
C         0.56883522120034       1.03318837002892      -0.85543536039558
C        -0.43494039003900      -0.70685717562106       0.61616601900170
C        -3.08760721921410      -0.07510519346085      -0.83132995116568
C        -2.66152198929939       1.32967177216845       1.20531065145745
C        -3.63125711450128       1.03191949082081       0.06575119699348
C         1.76379929742994       1.28997233218796       0.09703931242525
C         0.23313604718837      -1.88634783364266      -0.13277029221524
C         2.97389833245585       1.82003925785904      -0.68314152712367
C         0.46294790520812      -3.06863534780135       0.81768470227172
C         4.16471078415915       2.06268057648530       0.24039267766725
C         1.12266777786195      -4.23980326955643       0.09503598246653
H        -1.31470820575263      -0.53261877530116      -1.99147619670700
H        -1.75984790717096       1.17574313997448      -1.95883088474148
H        -1.27488595112584       2.58047815910637       0.12776524226364
H        -0.59129975568854       1.76906785686313       1.56426421741985
H         0.36102490888574       1.98843692646731      -1.39137869253515
H         0.90220542524357       0.33060171945305      -1.65132108322228
H        -1.37588834948763      -1.09517855176324       1.05127569909611
H         0.18902956212989      -0.45446959880841       1.50130413636868
H        -3.10899224681568      -1.05110254392392      -0.30436993162191
H        -3.75269947864486      -0.17595332969248      -1.71626787886380
H        -3.02310675444477       2.22525688933377       1.75568313049734
H        -2.65655406998233       0.49081660310113       1.93199974031490
H        -3.78939186075490       1.95391557256721      -0.53642084993359
H        -4.61334815200111       0.72241881664208       0.48430786075806
H         2.06959195372960       0.35181504037552       0.60315993574195
H         1.49246569813843       2.04072815778022       0.86677332241052
H         1.21600073783723      -1.58523884070520      -0.54817591602833
H        -0.41565870802607      -2.23552502589496      -0.96123199458956
H         2.70844329312311       2.77659904389438      -1.18424378715433
H         3.27002534185018       1.08468289750292      -1.46294448118456
H        -0.50953608205040      -3.40827378059528       1.23672637201788
H         1.11704135533897      -2.75257066016879       1.65949270851855
H         4.46205123068752       1.11830842885947       0.74401254425862
H         3.90828964973422       2.82249644849495       1.00911984255844
H         5.02624783116144       2.43409206001515      -0.35339144246572
H         2.11459645896676      -3.93770966358689      -0.30392769337114
H         0.48061435415388      -4.58839042482990      -0.74192668230236
H         1.26700453073848      -5.08075958818744       0.80536509902397
P         7.70829657884956      -2.49084146516118      -3.89118610320355
F         6.82686172354256      -1.40753592900190      -4.89810852435545
F         6.76835468491946      -3.85992668036003      -3.42990193251353
F         8.92557716905348      -1.41193760497619      -4.45198494117015
C         7.61152791012604      -3.51450309108160      -5.53623219812668
C         6.58696701665250      -1.44332165016604      -2.71073860483822
C         9.20918835359675      -2.95913929203229      -2.76644980196219
C         8.21056914701744      -2.87674707600079      -6.81920918048777
C         6.57896159857701      -1.83191536288255      -1.21771727646284
C        10.35201527227910      -3.76220160075566      -3.42019285012835
F         6.27813931691609      -3.78019603287282      -5.82433987359855
F         8.23051048067487      -4.73560112666019      -5.35649074030838
F         5.26193646166329      -1.53007809956629      -3.12847980632264
F         6.97832661706110      -0.11346152168786      -2.78168827381092
F         8.75133304874369      -3.73946672323487      -1.72008683852400
F         9.75866927611849      -1.81104185200071      -2.21215501910102
F         8.19239440014108      -3.82018202461625      -7.83150446033693
F         9.51750296206113      -2.47374057964761      -6.64799259011131
F         7.46030212493072      -1.79549988907404      -7.24555850944746
F         5.60592524524852      -1.08840361217944      -0.57285738958436
F         6.27212813025963      -3.16790057158131      -1.04165978696364
F         7.78573568034486      -1.54361924559790      -0.61243048537888
F         9.97106121325162      -5.07403759492502      -3.63150883458315
F        11.43630573150901      -3.77987164610268      -2.56041054969827
F        10.76865045377350      -3.20274566171885      -4.60754515707555
