61
C17H24F18NP optimized with ForceField in AMS.
N        -0.83242161372441      -0.20566422987277       0.03424898302059
C        -1.16120202900759      -1.24926667647992      -0.98598710289820
C        -1.97222814680087      -0.23932131393563       1.00150203840479
C         0.43683701685507      -0.56241369188225       0.74927928634208
C        -2.58627020518022      -1.71305061609049      -0.75028319191651
C        -2.79603409767295      -1.48006860821399       0.71903381793230
C        -0.75830031765589       1.13615969495158      -0.63089289008924
C         1.70545237813848      -0.52350604426559      -0.13662595013668
C        -0.40293399447092       2.30353762416872       0.32057413445194
C         2.91998944943892      -1.06560832200704       0.62614335404958
C        -0.49274769634402       3.64394117332438      -0.40277883229058
C         4.18091734677966      -1.00973011261851      -0.23143781492931
H        -1.05122927778469      -0.89076018590072      -2.03484091277206
H        -0.51086373565734      -2.14937476602960      -0.89360595088470
H        -1.64753311174075      -0.23528961312917       2.06685156124308
H        -2.65439372606666       0.63336228101983       0.87787421754700
H         0.34161479551534      -1.58376803410383       1.18632579344949
H         0.59925837966493       0.11315898044307       1.61814767100094
H        -3.29095363906245      -1.08278490663659      -1.33693017110458
H        -2.72677211159442      -2.78266616030569      -1.01884349010564
H        -2.39540516590430      -2.34037262066010       1.29972259469898
H        -3.87080784466607      -1.33084585456834       0.96075230991448
H        -0.01600389673011       1.12074698605296      -1.45951182231745
H        -1.73528971100040       1.36363644613815      -1.11780420685528
H         1.55843014748731      -1.12742481741752      -1.05647419466529
H         1.92682436370766       0.52151749960823      -0.43793166900931
H        -1.08932100845434       2.32786502589409       1.19208643181633
H         0.63361777041091       2.19437361154055       0.69943707360164
H         3.08436549649245      -0.46174145798415       1.54534903262448
H         2.73609139045229      -2.12063776547972       0.92498198029318
H         0.21419493532951       3.66685094615035      -1.25947745326504
H        -1.52573045820657       3.81501359586691      -0.77368036846495
H        -0.22730992054867       4.46357049080419       0.29788308296948
H         5.04202924978250      -1.40328551120731       0.34831645156246
H         4.05384724382681      -1.62993244733430      -1.14437924222451
H         4.40091031466663       0.03841273061573      -0.52689221965387
P         5.99485452131532       5.56560385474929       2.81015326964948
F         5.30277107417835       7.13731110024415       2.68760284085045
F         6.69820219168561       5.05716703494826       1.32059330944044
F         5.64629529479621       5.96365162327433       4.44732855894832
C         7.59031948084477       6.66366348927252       2.70485331320592
C         4.26871131415990       5.33370010091893       1.96447871398934
C         6.26944726133459       3.87014177362420       3.69643276065910
C         7.78899098593432       7.75124475500071       3.79552580114663
C         3.91516950949006       3.91877261662231       1.45793865913973
C         7.54698675867485       3.71939985912277       4.54592632606825
F         7.59780844519717       7.33126458941819       1.48604171481652
F         8.70925751836335       5.85528420281478       2.72128664734174
F         4.17817279234414       6.16547339280436       0.85185112288529
F         3.27788335247361       5.70240636797105       2.86388610193327
F         6.33598541668479       2.87511573682284       2.73752236533487
F         5.18154690697539       3.58426679399469       4.51047703050556
F         9.04335246487368       8.31317313762417       3.63560049270451
F         7.72218109378784       7.23584602597474       5.07195115881355
F         6.85916580762452       8.76850134101998       3.67398597920771
F         2.73548467655816       3.98970689897970       0.73793672282997
F         4.89105350061082       3.42011603737278       0.61549488468814
F         3.70623181091054       3.04277592744806       2.50439365079240
F         8.66275298962400       3.60854327034407       3.73838550247687
F         7.45545196065378       2.55426735661259       5.28690549196142
F         7.71086005012939       4.76455241136502       5.42742269717089
