38
C12H22N2O2 optimized with DFTB in AMS.
N         0.89543094375328      -1.68621402055536       0.99276527281595
N        -0.69693735207262      -1.08127672299913      -0.32898831275882
C         1.83153365291711      -1.68799821382999       2.11017267397322
C         2.99115548274944      -0.72952892744043       1.81730236877353
C        -1.79926741079880      -0.31646678607640      -0.89460109867182
C        -0.18723843895805      -0.90902903109061       0.89426058269831
C         2.54853640590305       0.73562654648288       1.82863967148406
C         1.11557284208276      -2.29920619430092      -0.20707381898330
C         0.09765264602155      -1.94068924516250      -1.03267163778680
C        -1.26840840214191       0.71805782535376      -1.89504132809697
C         3.64161384995764       1.63624768142494       1.25829003411244
C        -0.23831630857610       1.65717380821482      -1.27251059934341
H         1.28701995668290      -1.39556822299446       3.01309931343438
H         2.20174327010282      -2.70952938398839       2.23117878802965
H         3.39684188713029      -0.96972891999333       0.83103852474260
H         3.76792355926370      -0.89798702625472       2.56862453128161
H        -2.32774818819974       0.17255449518872      -0.07128487597019
H        -2.48028006710455      -1.01344655056462      -1.39170997752782
H        -0.60522254211257      -0.29773659247057       1.67423052510242
H         1.65538683772509       0.84030228578496       1.20497126087206
H         2.29058798186486       1.04059026087308       2.84975554786581
H         1.97419629510454      -2.91281644399611      -0.40654801175335
H        -0.06520366986535      -2.18190023360150      -2.06691707938535
H        -0.82119681344181       0.19678419965413      -2.74568142960928
H        -2.12934107079610       1.28716430287775      -2.25916593940465
H         3.81550313191533       1.37110895227663       0.21487228103985
H         4.57188822609676       1.52088985455508       1.81638872482261
H         3.32859028018514       2.67956997329734       1.30825401849019
H         0.69527569696612       1.12613753771402      -1.07930306492850
H        -0.61208790676512       2.07724307002927      -0.33713524949315
H        -0.02874608384745       2.47360236652434      -1.96284264058760
C         3.43958784645451       0.25868688114159      -3.17045860035592
C         2.64827007445145      -0.65345573877504      -2.19460934212808
O         2.27117994784597      -1.75567634041972      -2.62431352217912
O         2.44654644542400      -0.17758489109977      -1.04890716654124
H         4.40731572893279       0.49703386015112      -2.73089906234577
H         3.57977607236796      -0.23922985734228      -4.12776572944293
H         2.88583498528116       1.18608788101142      -3.31440654054461
