25
C7H16ClN optimized with DFTB in AMS.
N         0.81059073661499      -0.11176718084679       0.02602890334817
C        -0.01518968097902       0.97465810458567      -0.60356846392107
C         0.07737145388920      -1.42235583784899      -0.01520788835426
C        -1.40720693955153       1.08100582491598       0.00134422386173
C        -1.31654369294805      -1.33958529270789       0.58846811107046
C        -2.13456524446338      -0.25718557700230      -0.11272718409297
C         1.18618697793840       0.24292267305255       1.41790327551249
C         2.05677768615872      -0.26151601182352      -0.77955346468465
H        -0.09634903772537       0.71250311702006      -1.66568205037403
H         0.53974735289780       1.90922397380953      -0.49232144083241
H         0.69334811934050      -2.15777562957358       0.50761765497363
H         0.00383365344393      -1.68807565969316      -1.07620427235666
H        -1.94717768095059       1.84665162543785      -0.56157624071799
H        -1.36247025556977       1.40384011571147       1.04680757111792
H        -1.27083965597542      -1.14758017099890       1.66570680585778
H        -1.78854577159720      -2.31465754266175       0.44254099224091
H        -3.12469149857287      -0.18252477072459       0.34284051834181
H        -2.25413189069630      -0.51779003101692      -1.16852846206572
H         0.29246696209540       0.34953299041741       2.02741366840979
H         1.81502537765689      -0.54719696879016       1.82478163425381
H         1.73604483695926       1.18257835596479       1.40549080795361
H         1.76759975639650      -0.52099265314260      -1.80104552032836
H         2.60044448970846       0.68138715152482      -0.76663747006390
H         2.66533307029164      -1.05211029489485      -0.34441702443460
Cl       -0.03317039186222      -0.94050812541406      -3.17806871881546
