41
C11H24BF4N optimized with DFTB in AMS.
N        -0.21679153130294      -0.19447432338864       0.25199754135050
C        -0.86397723840698      -1.26031237835339      -0.58158460942872
C        -0.97322430844299      -0.25474102066214       1.55209288316690
C         1.23196735512898      -0.53306914169389       0.49055243008942
C        -1.15184784617907      -2.39745021549284       0.39044098469721
C        -1.39873467706128      -1.71019150679339       1.73792153267599
C        -0.38471939355204       1.14001113799991      -0.39922544583740
C         2.13812250652927      -0.36118458548849      -0.72505743433699
C         0.19635514635624       2.29311193315152       0.41842918295251
C         3.50313255789267      -0.99243941236967      -0.41621805060842
C        -0.07435810189827       3.61729523785621      -0.29402193971541
C         4.47857372133518      -0.79089816236461      -1.57255920847115
H        -1.79037179384781      -0.84710900179431      -0.98945406161862
H        -0.20355633959481      -1.53886421876972      -1.40185416115871
H        -0.32644115338513       0.09005800608732       2.35833788968376
H        -1.83980699035126       0.40476274301026       1.46298134108201
H         1.25708592009641      -1.56895836818835       0.82742983452732
H         1.58492147914103       0.08686035662672       1.31554888203133
H        -2.01673410299676      -2.97219166018005       0.05569500334852
H        -0.29514118672643      -3.07000020406569       0.46681748871864
H        -0.79938842834451      -2.18126153672797       2.51826426511553
H        -2.45116307937142      -1.75663980728915       2.02459939057545
H         0.08907837038802       1.08993095693142      -1.38252339068738
H        -1.45805650360800       1.29385045099659      -0.54428059907998
H         1.70772062613319      -0.84652352385433      -1.60691657388844
H         2.27741173880923       0.69898769528310      -0.95959583359863
H        -0.25961976872241       2.31428613417278       1.41128770205178
H         1.27371982207159       2.16617954902525       0.54355105171238
H         3.90857719768716      -0.54464450434761       0.49473194496606
H         3.37039257243090      -2.06033921977426      -0.22365285433410
H         0.38742089267139       3.62220429052610      -1.28191105778447
H        -1.14652927398189       3.78054298357852      -0.40867558615727
H         0.34230167501189       4.43776096567259       0.28876200248363
H         5.43243642893829      -1.26093239159762      -1.33476263684858
H         4.08899056000515      -1.23863092919307      -2.48848167816554
H         4.65016944476172       0.27189443636946      -1.75126782305532
B         1.93283155256307      -2.19861290808505       3.04981679912842
F         2.28637892643194      -2.84211835846067       4.19877245115134
F         1.08869851048327      -1.07947835183322       3.32400083511952
F         1.18653282064449      -3.05442907429454       2.18464935941401
F         3.03894678856292      -1.72329295862509       2.33047636243289
