23
C7H8F3NO3S optimized with DFTB in AMS.
N        -0.55528976570522       0.77282989435844       0.02629515840232
C         0.05139114370885       1.45637842810424       1.01124917345362
C         0.15016320568718       0.06757822734449      -0.86940438384160
C        -1.99980921281010       0.92889914591384      -0.12746508456675
C         1.42203637325506       1.39194480960950       1.16049386257159
C         1.52108025447367      -0.02791251126817      -0.75978621060935
C         2.17302221635618       0.64091162340050       0.26886135339111
H        -0.58168794780429       2.03361748611015       1.67158166565192
H        -0.40300067774589      -0.40284355345127      -1.67262991207574
H        -2.49629647129741       0.59368879506965       0.78244988736352
H        -2.20042976251040       1.98908103437888      -0.29198453978643
H        -2.34149354718098       0.34839643882107      -0.98065147386822
H         1.89386951459748       1.95828240286221       1.95270138944297
H         2.07309473052827      -0.59494424450833      -1.49764898547650
H         3.25141244892947       0.59655803965980       0.35613347606767
S         0.21139197104959       3.73883345010249      -1.38167236243601
O        -0.62203307484264       3.54329899961043      -0.19161795886599
O         1.27375404990742       2.75609928322151      -1.50369724693250
O         0.56752144181522       5.10171185383747      -1.65797555135330
C        -0.95366374763080       3.24204857792996      -2.74612755502853
F        -2.14261608528645       3.82168422618861      -2.62147543704390
F        -1.16124855517680       1.90621734847801      -2.67096653433957
F        -0.47922940181743       3.50208169302650      -3.95327004622034
