39
C9H20F2N2O4S2 optimized with ADF in AMS.
C         3.86876817096856       0.65618051445192      -1.09595962834140
C         2.68514254413278       1.53648033584659      -0.69380970915388
H         1.30925771400487      -0.38975481793862      -2.03240399657113
H         1.29836014353454      -1.49496375998583      -0.61715033331026
H         3.54807117690856      -1.25492476038251      -2.17966538743553
H         3.71758925232018      -1.41082259078557      -0.41646740381271
H         4.65950858919570       0.69758983423220      -0.33560829899326
H         4.28885600307302       1.01633961190299      -2.04634828861818
H         2.91995179397193       2.25372185064175       0.10356206356786
H         2.24122312555677       2.05529449845776      -1.55702854128734
H         1.18167841847503      -0.53752690361723       1.57205585848288
C         1.89390285737128       0.22855607952093       1.24576517360315
H         2.91832264402885      -0.15362687937430       1.33016483917822
H         1.80729907090530       1.13424536304860       1.85623634245738
C         0.25572908939253       1.24875974846527      -0.32534563337710
H         0.34824844192985       2.18661277869695       0.24473580129183
H         0.15552330596631       1.50592289476003      -1.39216040441145
H        -0.82534129536309       0.10623903324728       1.17684203059101
H        -3.20757444401080      -1.95386257134866      -0.97543918414020
C        -1.48214506819204      -0.63960954862322      -0.76430807996225
H        -1.56231324488670      -0.25382737827041      -1.79729295424112
H        -0.77180783524502      -1.48029786552925      -0.79716524037753
C        -2.84249885682563      -1.16078579246747      -0.30617945731531
H        -3.59255576484104      -0.35428731983440      -0.29533434015817
N         1.60795698916850       0.58242799165174      -0.18373252903069
C         1.79494831148762      -0.63172466880844      -1.07448287157166
C         3.30468457278360      -0.78118170035667      -1.21783503102960
H        -2.78319642853805      -1.57911760694373       0.71113589488983
C        -0.96903076235539       0.47665441395675       0.14833827005417
H        -1.76633476914543       1.23959212040812       0.22729875712549
N         5.98880699623739       0.40911568162219       3.34287274923053
S         5.95815652854962      -0.78346564498884       2.27956592328686
S         4.90185975975393       1.57882601994245       3.27638110921518
F         6.57528390004665      -0.06658491615896       0.90157831435388
F         3.52621025279055       0.83715546256542       3.88694806503947
O         6.94583429940968      -1.77068954997701       2.64411628811481
O         4.63159886175523      -1.21451758129532       1.83269265835294
O         4.46322546699561       1.97419218548931       1.93765625469321
O         5.22735078918876       2.58428103107819       4.26028751271006
