47
C15H25F3N2O2 optimized with DFTB in AMS.
N         1.49847218349781       2.17372081252074       0.25775780937063
N        -0.64776474141236       2.15877780160386       0.45432172879516
C         2.83198218130225       1.91575191302110      -0.27682524158479
C        -2.06000791468612       1.93671201398626       0.15701588386559
C         3.28760552250127       0.49593600905981       0.08211335824316
C        -2.30767996414810       0.48055195192132      -0.24897482202448
C         2.41593533617264      -0.57826516774562      -0.57235696395293
C        -1.89292442316515      -0.50255625916914       0.84974071323838
C         0.35914643179026       1.94825056116542      -0.39644190584808
C         1.21491218678999       2.49211755317468       1.55491499147799
C        -0.13951863629417       2.49639412409025       1.67650654960754
C         2.78143660007316      -1.97441599345181      -0.05880157747284
C        -2.17862786514474      -1.94886586381995       0.43476279393582
C         1.94496377234113      -3.04794549801831      -0.75146092917683
C        -1.78640763217466      -2.92842441015672       1.53960458582713
H         3.51109895689357       2.65568776543312       0.15467235918735
H         2.79139269166460       2.05661232936602      -1.36108994989101
H        -2.35335932326164       2.61650149801265      -0.64937372698752
H        -2.62449442841851       2.18809873327364       1.05791430806056
H         3.24896204680414       0.38141828318975       1.16793360635132
H         4.32645194152159       0.39197283223843      -0.24415811135157
H        -3.37588234773188       0.37847047825490      -0.46334295831764
H        -1.75839571245834       0.26442807683470      -1.17090865784057
H         2.52592901337876      -0.52969752935443      -1.66280231727145
H         1.36727980963008      -0.38235146780920      -0.32686098214714
H        -2.43580494259143      -0.26721649002612       1.77023892221780
H        -0.82560746227875      -0.38349375739936       1.05176025463522
H         0.26886277988711       1.68467924757340      -1.43538348023636
H         1.98433322612449       2.65349706670844       2.28750009266921
H        -0.76594739840728       2.65781233079693       2.53528830294942
H         2.59592735716341      -2.01638058981209       1.01847061710428
H         3.84550569539170      -2.16596251619452      -0.23492858310600
H        -3.24541224767058      -2.05798878700017       0.20651201077420
H        -1.61708248492252      -2.18043965127393      -0.47746871846316
H         2.11243988726136      -3.03717936858805      -1.83044985109634
H         0.88362412642127      -2.88089399372022      -0.56295288467529
H         2.21295339703059      -4.03190303555247      -0.36692177296412
H        -2.34186412091920      -2.71367042195992       2.45314103389110
H        -0.72162730098600      -2.85418901070840       1.75913480340971
H        -2.00946192279687      -3.94854334055003       1.22648208240301
C         0.92718134610879      -0.90210986689306       2.92949954257992
O         1.25500164571403       0.01498596022412       2.16688698147771
O         1.15958329280708      -2.09569219464391       2.92930451699338
C        -0.03335467837499      -0.36812053867257       4.12977314163212
F        -0.74868872575974      -1.32165183575371       4.73710941994577
F        -0.93792064577991       0.53365730659867       3.64360494565515
F         0.65337841891186       0.28745374632550       5.08482609180947
