37
C11H24ClN optimized with DFTB in AMS.
N        -1.15314257788613       0.03192725886662       0.02594543208151
C        -1.52422786188404      -0.90831391540489      -1.10116386017510
C        -2.41826231747424       0.25311616311024       0.82420293535132
C        -0.11376124116026      -0.61234932625685       0.90396565778910
C        -3.03730675494044      -0.84932802112893      -1.19684045536281
C        -3.45462911861558      -0.71394900732445       0.26428089607861
C        -0.67481684431645       1.33123874406844      -0.56341044851367
C         1.17229516690121      -1.02096069723477       0.17215599185150
C        -0.34246508711008       2.40461878378965       0.45972470840138
C         2.36544118384684      -0.11353712435535       0.48706344001838
C         3.59793185817191      -0.57103354397783      -0.30031001523275
C         4.80616490857944       0.31424182950903      -0.00393036513246
H        -0.99734672410475      -0.60426675664640      -2.01244780774002
H        -1.20241209620410      -1.91306275812208      -0.82155201632626
H        -2.21523902573085       0.10114231698781       1.88428321557774
H        -2.74672108358166       1.28191311197557       0.67107319079140
H         0.10022316310887       0.08373770604197       1.71879298042724
H        -0.59754736456376      -1.49442331515455       1.33188760237677
H        -3.36069648855355       0.02185775466216      -1.77180579962860
H        -3.43597449444526      -1.74997669555793      -1.66372688498932
H        -3.39411107059056      -1.68098091876528       0.77043872112041
H        -4.46293957911090      -0.31568254353341       0.38219343319767
H        -1.47354641265597       1.67793935343207      -1.22371882181935
H         0.19795006078255       1.09970928359325      -1.18324325115301
H         1.01725303999621      -1.02624633227248      -0.90874229220844
H         1.41652446942018      -2.04394481203893       0.47397662623491
H        -1.19903902357107       2.66873443976529       1.07964938267066
H         0.47989285801104       2.10871628911337       1.10803246866387
H        -0.03403045036960       3.29203806654594      -0.09227199594512
H         2.57478489387664      -0.13391899356978       1.56304042491304
H         2.13313326235567       0.91829859779846       0.20846231117999
H         3.82976986907987      -1.60960696810517      -0.04167369647508
H         3.36947431541102      -0.52901415463187      -1.36921762178284
H         5.66718372085618      -0.02788778929959      -0.57808512019777
H         4.59666494907471       1.34925653777235      -0.27753391045888
H         5.05866853762136       0.27975953014470       1.05745072243680
Cl        0.85322083837559       0.00475593030358      -3.03301654482083
