26
C6H14BF4N optimized with DFTB in AMS.
N         0.78272394502857      -0.17890111009664       0.04079282513992
C        -0.18178095531134       0.95195162452656      -0.17354537956006
C        -0.05432959224620      -1.38190263265500       0.42461898571442
C        -1.33613057514132       0.64205725998621       0.76554874913582
C        -1.47650956682554      -0.87458629662552       0.65420886803489
C         1.73076077875078       0.17464942098919       1.13495989414508
C         1.56069962718481      -0.45064112306338      -1.19139946912190
H        -0.50624982274623       0.92772467393877      -1.21713765509128
H         0.32194760382282       1.89679302112486       0.02976531303326
H         0.37307413648811      -1.81175627920519       1.33239214925925
H        -0.00329726429547      -2.11220540659952      -0.38396489474688
H        -2.24164409485054       1.16871720606687       0.46375990528581
H        -1.08357789974913       0.91656115742297       1.79145423038366
H        -1.88396638782122      -1.29710334564656       1.57247894570927
H        -2.12228679757757      -1.14347526300907      -0.18586357324032
H         2.34744336014504       1.01062403448426       0.80921001680054
H         1.16416718247092       0.44263255359821       2.02325818244340
H         2.34935527915931      -0.69090023999401       1.35955744044203
H         0.88104008375842      -0.72658578397935      -1.99524969975876
H         2.11443158848671       0.44601333330089      -1.46498997046083
H         2.25304621049527      -1.26627620935401      -0.99205162593231
B         0.82939619149572      -1.12712067183633       3.84676262136289
F         1.66872135424964      -0.02468914798406       4.02551759097683
F        -0.35495513217447      -0.65797123916177       3.18936219231129
F         0.52684784894763      -1.76844891320836       5.00985371886483
F         1.45972168865527      -2.01149944962000       2.91753031096914
