61
C17H24F18NP optimized with ADF in AMS.
N        -1.06449133455594       0.90818680520530      -0.00927547872718
C        -1.80282100396271       1.22877092536626      -1.30159620583238
C        -1.94693237870873      -0.00231008301053       0.83158706986105
C         0.20412095927846       0.16803691027903      -0.37834875497913
C        -0.75898246620264       2.18086759826391       0.77372538138517
C        -3.17550929529985       1.83724932096208      -1.07121186161373
C        -3.31459314985433       0.59087246538140       1.10376264699457
C        -4.04642054663016       0.94228040344471      -0.18937935556458
C         1.11122060979558      -0.19447084335717       0.78549596995998
C         0.26369743555023       3.09094739246315       0.12747399412403
C         2.38117465307575      -0.88612778445702       0.28056210070535
C         3.30524439113609      -1.27979859178909       1.42992041283046
H        -1.88566949358632       0.26640305014963      -1.83377544836015
H        -1.14540783702292       1.88957662157997      -1.88349499707173
H        -1.40260096225646      -0.19727550696773       1.76493993010225
H        -2.02639234417812      -0.94247744299189       0.25985725991650
H         0.73451878182407       0.80486129557009      -1.10192147050279
H        -0.12215421364673      -0.74032188948483      -0.91001472066376
H        -1.71042339759094       2.70330022407187       0.90879813046957
H        -0.43366765938529       1.85182416868381       1.77066945372439
H        -3.63501731352011       1.97470307404225      -2.06446465924351
H        -3.09420005845858       2.83983196156598      -0.62610914718123
H        -3.23615760834748       1.47692078415996       1.74949258418159
H        -3.87967852863122      -0.15846653483252       1.68076902667615
H        -4.98728841828148       1.45897507287666       0.05088160990283
H        -4.30098855217782       0.01564402586052      -0.73759006223301
H         0.59454419914612      -0.86979032132503       1.48690853433343
H         1.39822459409470       0.70643827452345       1.35164356102897
H         0.35063280260268       3.97994115428171       0.76782796626281
H         1.26051860543998       2.63414905320928       0.04681491902521
H        -0.05515958288386       3.44983928472626      -0.86124060633587
H         2.91265633622648      -0.21093049391638      -0.41360187764124
H         2.10471156367958      -1.78299628573546      -0.30221261306786
H         2.80297059532981      -1.97759442933785       2.11808234239776
H         3.61000772884151      -0.39504258532941       2.01054066243411
H         4.21682381379610      -1.77038296515194       1.05884766038020
P        -4.10583699269743       4.67036315574773       2.80962696166012
F        -3.76317287193719       3.72727435132481       1.43127997492794
F        -3.47728671163101       3.42692036023234       3.74044013334385
F        -4.74008129138091       5.89715622947052       1.87763078201495
C        -2.27904214647246       5.41838890513558       2.46302415790806
C        -5.92456727785577       3.86115858129521       2.74600766144577
C        -4.39226886559179       5.64305357152922       4.52661199428337
C        -1.97608712690167       6.06113617045367       1.06031898401264
C        -6.22415790717555       2.49219921218098       3.42788102761589
C        -4.87261075913311       7.12439871592874       4.51140892145279
F        -1.34090604722354       4.39362330316520       2.59041488035424
F        -1.87782649497784       6.40379741303214       3.32988641524342
F        -6.26002837039847       3.64672715513561       1.41615423095656
F        -6.86499549915343       4.73832813122678       3.22547731040405
F        -3.22907650489931       5.61564713422461       5.26336909981003
F        -5.32078127435225       4.96986592910577       5.29064557282743
F        -0.64068586283785       6.37592066476318       1.01210884952117
F        -2.66523539301518       7.19774022216538       0.86418271858889
F        -2.20578784225149       5.23127103073587       0.00523432310997
F        -7.53850269083305       2.17678204837604       3.24646225013691
F        -5.49165732655236       1.49479621875505       2.85162544434092
F        -5.97722570040305       2.47611179622364       4.75047737162183
F        -4.87750152755624       7.60787595711552       5.78790812006211
F        -6.12936920403134       7.22924476344729       4.02662662833762
F        -4.06162616777315       7.91826854684868       3.77427146894123
