48
C12H22F6N2O4S2 optimized with DFTB in AMS.
N         0.22933503458289      -0.49978599943927      -0.08940175397282
C        -0.83337466591620       0.45401634750093      -0.55037801235592
C        -0.38894786552849      -1.86434092420597       0.04104781495066
C         1.27797902133878      -0.55236591170808      -1.17352469290656
C        -2.04184649792550       0.49261413851853       0.37954451870176
C        -1.58801244557549      -1.89488030279054       0.97633678953952
C         0.82403962910180      -0.08647433679591       1.22965130776064
C        -2.65573601289474      -0.89915318810599       0.53339769448275
C         2.49492629909094      -1.42395458096655      -0.86661234381643
C         1.54538316900230       1.25099807607019       1.21455104884166
C         3.40993303976368      -1.45713092033727      -2.08949057568298
H        -1.14398688861266       0.12001846272845      -1.54450140141869
H        -0.38232973688583       1.44369783824040      -0.64240827866835
H         0.37937124147341      -2.53850767840445       0.41065515537192
H        -0.68449769945082      -2.17733750761300      -0.96369144356597
H         1.59053328295876       0.47710521852041      -1.36742085273810
H         0.77307771053041      -0.92648261078493      -2.06868877332968
H        -2.77134495298055       1.17622687016869      -0.06301052502296
H        -1.76270866859995       0.89467117513921       1.35669052609994
H        -1.27514728822500      -1.70005594585199       2.00450045334323
H        -1.98735883640535      -2.91122651873644       0.94583231092724
H         0.01306552361829      -0.05429207851558       1.95717607289429
H         1.51342715101483      -0.87610371634710       1.52859247165443
H        -3.46247113606475      -0.86449419367777       1.26895166725174
H        -3.08122608000818      -1.21598384399458      -0.42446609952960
H         3.04934038469507      -1.02872485577899      -0.01339270056338
H         2.19114931567891      -2.44459479573685      -0.62515500259572
H         1.92027414111821       1.42391471878385       2.22329545623289
H         2.39642220006294       1.24861881022883       0.53628973438510
H         0.88231469960451       2.07443683212052       0.95216885621817
H         4.28269190066570      -2.06891321462678      -1.86612665437563
H         2.89190331823863      -1.88939639184037      -2.94621957028958
H         3.74449162978405      -0.45239571390422      -2.35165281930757
N         2.59215427344930      -4.20976641571022       0.90998602676681
S         1.88701018456949      -5.64137474570411       0.68944641129575
S         2.21346111617366      -3.40055854511928       2.23614949708431
C         0.38562265293842      -5.26862619273101      -0.37723583803867
C         2.83810117730481      -4.31798441803952       3.75523087157727
O         2.72002278562828      -6.39991625225861      -0.19891425994249
O         1.36398280877758      -6.26224417073101       1.87625287060092
O         0.78862037820042      -3.20704328691643       2.47127765783085
O         3.00843571205237      -2.18649462519364       2.19089656321334
F         0.00897501407716      -6.33629992577465      -1.05233551149104
F         0.69195347437191      -4.30190488799481      -1.25751925369573
F        -0.64654057451619      -4.83142338066630       0.33786809825582
F         3.36567785574595      -3.42889028972025       4.58336103592232
F         3.76723638447029      -5.18873656341040       3.41314914416016
F         1.84950797670601      -4.93452814138715       4.36608862044436
