43
C13H27NO2 optimized with ForceField in AMS.
N        -0.83518034079500      -0.20333766706399       0.01277695565519
C        -1.17034570681654      -1.24659928572908      -1.00590796092757
C        -1.97543001282694      -0.22472809926978       0.97982163423368
C         0.43106915195365      -0.56854906457038       0.72893620391831
C        -2.59391305010595      -1.71260742715806      -0.76295432912712
C        -2.81095142543106      -1.45860466806108       0.70200543869731
C        -0.74977187977089       1.13747247494067      -0.65304092210568
C         1.70060983433444      -0.53909280722594      -0.15657941015670
C        -0.38116254668410       2.30110248895469       0.29908948432285
C         2.91046102709837      -1.09143308387063       0.60580714677565
C        -0.47955831585556       3.64586178766826      -0.41512856568304
C         4.17148989144177      -1.04727251480387      -0.25277914281915
H        -1.06690001198462      -0.88763583916064      -2.05554344353621
H        -0.51838170635661      -2.14628211127786      -0.92058865192855
H        -1.65090044266838      -0.21953145643970       2.04565109118321
H        -2.64951794423155       0.65423802158663       0.85578819642945
H         0.32869642561047      -1.58856222381089       1.16784450675000
H         0.59839703288230       0.10684728196438       1.59709130104912
H        -3.30067197124718      -1.09716475030643      -1.36271087821832
H        -2.72775959002929      -2.78765349444214      -1.01411793498844
H        -2.42787568743516      -2.31678967510692       1.29754480863453
H        -3.88607998103600      -1.29201454498702       0.93295594088003
H        -0.00959637683755       1.11579315457422      -1.48325137708652
H        -1.72535174337558       1.37408383931534      -1.13865857924253
H         1.54938750544161      -1.13987855431390      -1.07780090012520
H         1.93050253700447       0.50431299149497      -0.45703166434496
H        -1.05551610563845       2.32146716867326       1.17997028748627
H         0.66053645164618       2.19022620052185       0.66401626285511
H         3.08041963262207      -0.48876699616550       1.52474499967437
H         2.71743783828817      -2.14428474953002       0.90610133798541
H         0.21863964150875       3.67497431779734      -1.27862750184595
H        -1.51628937794725       3.81901739653718      -0.77398232101567
H        -0.20766335029608       4.46080654495460       0.28863877416536
H         5.03100476586189      -1.44302110702168       0.32826038726623
H         4.04005686429769      -1.67068138501721      -1.16262343713929
H         4.39771592379108      -0.00205097184128      -0.55366785180806
C         0.15208178677649      -2.23013280022102      -4.88812725479810
C        -0.94214794523262      -1.70510448764268      -5.76268004290226
O        -1.97651524549681      -1.29356294250038      -5.26313299504880
O        -0.80580342708379      -1.68602516833576      -6.97533324132566
H         0.50279177996305      -1.42714993053746      -4.20630407341041
H        -0.22854105986904      -3.08080439225652      -4.28457603429583
H         1.00991092672957      -2.58072339211556      -5.50146380478205
