49
C13H28F3NO3S optimized with DFTB in AMS.
N         0.76275738239613      -0.35121498140589       0.17216180288319
C        -0.25079950730211      -0.03644056437611       1.24360067257874
C         0.25300447559449      -1.41356996595063      -0.76748849129823
C         2.00751509898668      -0.85650836172082       0.85707595607164
C         1.04278983454514       0.88645675710306      -0.63233799761340
C        -0.84351903883036      -1.25084802320580       1.96103752322398
C        -1.08704268769213      -1.12076081785078      -1.43844309876857
C         3.11566910973680      -1.35650276287813      -0.06507285018674
C         1.68789837570265       2.04366315616782       0.12921098861146
C        -1.71926229862335      -0.76960136375264       3.11618044971381
C        -1.53206909166601      -2.37819498704946      -2.18810220640861
C         4.29586627814635      -1.80089054852637       0.79904548174803
C         1.80594907865799       3.25199498240420      -0.80027251682573
H        -1.04788983735797       0.54662517287230       0.77504914843324
H         0.25468935489140       0.60288522536227       1.97217726018246
H         0.18276305574163      -2.33335847765536      -0.18865222027262
H         1.01242789808635      -1.54781717550680      -1.53897636622758
H         1.69565640467977      -1.68626719941950       1.49221927838680
H         2.37462447742459      -0.05079062275371       1.49654195556897
H         0.08673458899956       1.21665628986018      -1.04537766678968
H         1.68902146248488       0.58871908075258      -1.46173522696450
H        -1.44906749861410      -1.84856033005330       1.27835083538559
H        -0.05622648452585      -1.89748047940909       2.35225659485173
H        -1.84982796525074      -0.85947728359490      -0.70172949155557
H        -0.99536858697273      -0.28743269131504      -2.14229079225404
H         2.76694946697278      -2.21974889420534      -0.63528149018830
H         3.43520804113422      -0.57756308460020      -0.76355286623883
H         1.08486935334011       2.31800183638436       0.99818438257943
H         2.68547515181324       1.76675750426804       0.47801351083355
H        -2.15387351226867      -1.63181617360778       3.61986842615436
H        -1.13094005716699      -0.20332095182744       3.83969864716714
H        -2.52811025377121      -0.13546467845506       2.75020484948853
H        -2.48326941200051      -2.19237538820269      -2.68564933669294
H        -0.79136694339753      -2.65856831163077      -2.93714432339321
H        -1.65289718760460      -3.20632345534503      -1.49007099525963
H         5.08198579494973      -2.20763505000567       0.16479784387156
H         4.70006902187766      -0.96120418626016       1.36630515062970
H         3.96988598108217      -2.57279760702774       1.49657925102078
H         2.27601689627271       4.07817554356005      -0.26828067947471
H         2.41464377272821       3.00697038097517      -1.67107081914321
H         0.82099059198706       3.57221421526416      -1.14130051663327
S         0.46991517968368      -4.67713674993500       0.90872335159215
O         1.50014768159771      -3.73692982367711       1.34401315829873
O        -0.79285395187715      -4.02444021360611       0.57909942858420
O         0.36342580296282      -5.88457117855264       1.67816856168403
C         1.10621769494695      -5.19383049222937      -0.75872243699397
F         2.22708195475283      -5.89600678150579      -0.67592057488943
F         1.37790176507085      -4.08313484829060      -1.47605096014104
F         0.21454226627493      -5.89705068078534      -1.44343579123001
