38
C12H22N2O2 optimized with ForceField in AMS.
N         1.90790697143816      -0.92527046624786      -0.24867435371624
N         3.11422829444060       0.93600359668056      -0.09442126068747
C        -0.37078796071665      -1.87364789792545      -0.10418678154899
C        -1.04747590595078      -0.51570766151870      -0.34301937053773
C         1.00706850767701      -1.94932396722290      -0.77647605346414
C        -2.45594174897204      -0.48097836918299       0.26009736449050
C        -3.09881368503921       0.89719820314494       0.06194569972540
C         2.36345984554831       0.16220930390313      -0.90169502205823
C         2.39399620704531      -0.83961407122186       1.00638011273726
C        -4.50752761809798       0.94079969083452       0.64531556285775
C         3.14027326042578       0.31786346250605       1.10253859203629
C         3.73836940280327       2.20987430018890      -0.42805208136899
H        -0.26067623030274      -2.05244111794644       0.98769397074603
H        -1.00972088735682      -2.68330032578587      -0.51959467039344
H        -1.11155401087637      -0.32166488919733      -1.43635854897331
H        -0.43583049250524       0.28799352093050       0.12223307929547
H         0.88786388540278      -1.82327650430548      -1.87533582637776
H         1.44955352007496      -2.95338616115259      -0.59999152975230
H        -3.08490218467550      -1.25667246887879      -0.22990164483771
H        -2.39769650274652      -0.70703904485451       1.34784582222278
H        -2.48000706569227       1.67442522407941       0.56152724531118
H        -3.15205900870504       1.13463521846249      -1.02301212874809
H         2.12964180625088       0.39895792099355      -1.93233782101309
H         2.20376047176006      -1.55450947599710       1.79660984281243
H         3.65282995793575       0.68723848739210       1.98125785661053
H        -4.48056655046997       0.72971823891318       1.73554897942552
H        -4.94119617969383       1.95119848614265       0.48967961183223
H        -5.15711812816305       0.19374501227147       0.14149706595339
H         4.83431248364272       2.14417818174844      -0.26759268610446
H         3.54534987490367       2.47158691036071      -1.49039600048155
H         3.32318291862012       3.00978931765749       0.22020782499713
C         6.55356880756999      -0.42641446691107       0.20689139984764
C         7.66981566299033       0.52423782970492      -0.09280993114153
O         8.67879544530165       0.51443906820309       0.59326276749421
O         7.57679562139402       1.31031098555460      -1.02170717289578
H         6.91992005155917      -1.47103693209349       0.12677378260882
H         6.17937684414059      -0.24974653154904       1.23706290068976
H         5.71621053923889      -0.28657000238126      -0.50919515439350
