56
C16H19F18N2P optimized with ADF in AMS.
N         1.98383589600770       0.43751923086625      -1.08538589870900
N         3.58579557733616       1.11720081868490       0.21542302383411
C        -0.34362481270022       0.60749870562641      -1.93857312713910
C        -0.52866181943671       1.95966306276517      -1.25516771180555
C         1.11051921713441       0.28694669339503      -2.26906132505306
C        -1.99611361974751       2.35692012133922      -1.11467442356686
C        -2.17630858933178       3.62695067732712      -0.28474772371522
C         3.08814014978478       1.19078298388955      -1.02716193211238
C         1.76279027086572      -0.12430925472859       0.15368551992328
C        -3.62685835865381       4.09747814183530      -0.23832893849715
C         2.76739934467414       0.30245759385865       0.97253712758809
C         4.77242470687819       1.82184823545208       0.69811588611074
H        -0.78513271528287      -0.20130301782804      -1.32779056903844
H        -0.88579086796941       0.59239628387089      -2.90054907694121
H         0.00153565971323       2.73966863749548      -1.82107733303209
H        -0.06211703164557       1.93936947289469      -0.25227119504761
H         1.49565916810911       0.98629827686981      -3.02187437820097
H         1.23673943075230      -0.74237862946081      -2.63959293985402
H        -2.42073975384033       2.51851915945710      -2.12276002482954
H        -2.57297727382937       1.52912154103898      -0.65764693707999
H        -1.80880983938829       3.44057709619870       0.74192484534994
H        -1.54104051654104       4.42289730546931      -0.70538895645320
H         3.48316891980711       1.79701472576259      -1.83294359303175
H         0.91044889800284      -0.76205167752624       0.35006251379822
H         2.96470519044500       0.10288783536965       2.01876865319266
H        -4.28793442788191       3.31953212533155       0.17933196239477
H        -3.73366549402728       5.00173283622837       0.37941643027445
H        -3.98704783657103       4.34073611219495      -1.25087762972272
H         5.41500098158699       1.10880925966515       1.22894773079964
H         5.30868378896648       2.23887630188480      -0.16051705203086
H         4.46618794984339       2.64161753643935       1.35948877425364
P         1.38966718989026       5.94327436532102      -2.76386003496149
F         0.98119455213209       7.35864622370826      -2.01419675189408
F         0.81666786293298       4.99853924215721      -1.50116083318991
F         1.98894778894904       6.78327034847793      -4.06156329900867
C        -0.45440837576450       5.98115309617919      -3.44946837515682
C         3.15491055555336       6.09973231630195      -1.73664563790998
C         2.06091567803380       4.27398472549720      -3.73250729666273
C        -0.82941995562898       7.00768238271824      -4.56228014033897
C         3.90766476257726       4.91847138335026      -1.02913568950184
C         1.46419807051827       3.53377118929522      -4.97573250831134
F        -1.30773669135040       6.26905471225040      -2.40653408075726
F        -0.85237353120392       4.74189084374965      -3.92329722095644
F         2.90897919408903       6.92052935343344      -0.65251648048683
F         4.11737868800283       6.71847884914728      -2.49967151651329
F         2.19296768432963       3.22616033506036      -2.80000803854503
F         3.33837922007958       4.58727009161591      -4.13489819693492
F        -2.17433457579427       6.93634697687816      -4.79617405813386
F        -0.20319152777727       6.74495224863435      -5.73169532416247
F        -0.54052762318827       8.27168121749797      -4.19061451120457
F         4.86980567877630       5.41719999732454      -0.20095295100679
F         3.07282590373260       4.17004397444331      -0.25412544648824
F         4.55672397903870       4.06699909416780      -1.87528469746657
F         0.43791858507104       2.70198115914408      -4.64259691315727
F         2.43402948100069       2.72352534510706      -5.51071300787668
F         1.06043170513972       4.37995447897179      -5.93271545373274
