52
C16H34ClN optimized with ForceField in AMS.
N        -0.01552641384131       1.98708892055358       0.02626898182947
C        -0.69839968873654       2.89678565163432      -0.94485733679332
C         0.65293182107231       2.90053031719099       1.00344304715499
C        -1.02443484130381       1.14530033682068       0.74894908800228
C         1.00712956013377       1.16780667972610      -0.70263588753268
C        -0.20852281798258       4.30923499050626      -0.69402680229167
C         0.13053093765439       4.30456122730728       0.76922366102675
C        -1.80022215232688       0.15298833337719      -0.14898875665472
C         1.78786554559865       0.16675736866046       0.18163783989178
C        -2.86485795849174      -0.59777353560052       0.66102777119389
C         2.88228309733468      -0.53330866082062      -0.63536996893348
C        -3.62869741148980      -1.59167240737490      -0.22252846841549
C         3.66173128264424      -1.53632519732594       0.22322279512018
C        -4.68658929680758      -2.35120428812310       0.58595683006088
C         4.72284810475046      -2.26584306796129      -0.60898005086295
C        -5.44334273271472      -3.34278473096130      -0.29343742124130
C         5.49846948891807      -3.26641836987684       0.24295696894732
H        -0.52034214512802       2.61979227744200      -2.00937661373777
H        -1.80316661643441       2.91165299832172      -0.80272956262583
H         0.48687070516917       2.60807542491951       2.06572888486532
H         1.75675613651613       2.93934242924549       0.85608653755927
H        -0.53760210441807       0.57155045880593       1.56787469928479
H        -1.76486593663428       1.80792874813024       1.25501659898916
H         0.53267132521835       0.60276382468717      -1.53474081355558
H         1.74314324582886       1.84686723932875      -1.19301424876107
H         0.70837492629064       4.50417663874704      -1.29397207951707
H        -0.98393554326393       5.06862857669030      -0.93460974790147
H        -0.79107094947899       4.47073940558935       1.37072076462840
H         0.88737583044854       5.07961451413726       1.01846232357140
H        -2.30090414665688       0.69191765712667      -0.97953530369278
H        -1.10594576045615      -0.59534821131928      -0.58294166519583
H         2.25800429408342       0.68901964213185       1.04137873853877
H         1.10133456709125      -0.61092345072481       0.57557106487617
H        -2.37148148634130      -1.14898347970456       1.49174276990697
H        -3.58137433217442       0.13262126754309       1.09770975597851
H         3.58668668913156       0.22701154033063      -1.03934252198519
H         2.41266917381277      -1.06873212718124      -1.49001176728615
H        -4.12505152148680      -1.04070964874117      -1.05178239307988
H        -2.91089111904878      -2.31935966816906      -0.66145473330130
H         4.15710485476955      -0.99598060942881       1.05991866802498
H         2.95585584103586      -2.28185146777305       0.65127693661871
H        -5.41276924495329      -1.63216558904932       1.02402701587883
H        -4.19751438611703      -2.90724024812600       1.41538082808811
H         4.23415878139357      -2.81074651707377      -1.44609951871603
H         5.43656547006989      -1.52902923313491      -1.03803273334622
H        -5.96743851557317      -2.80831197260138      -1.11419298273274
H        -6.19741220311075      -3.88224023297598       0.31743465859320
H        -4.74182855389674      -4.08593565027356      -0.72897815232189
H         4.80922308233190      -4.02680756923601       0.66814026634689
H         6.25350017631048      -3.78391199356591      -0.38552377401515
H         6.02307107438750      -2.74294912877757       1.07037421333307
Cl       -2.05161124662804       0.42360456304703      -3.97264475891253
