33
C9H17BF4N2 optimized with ForceField in AMS.
N         1.01717863800486       0.35650489052245       0.45438968446813
N        -1.01099370024506       0.35051331745833      -0.45740816931433
C         2.27210229591175      -0.11309449706506       1.03773527581915
C        -2.26100179972479      -0.12603435411727      -1.04574955047435
C         0.00571776192530      -0.40648718750737      -0.00234110815264
C         3.44159263615211       0.09209583714092       0.06891025639088
C        -3.43433563690647       0.06712498563078      -0.07877281842052
C         0.62811412700509       1.63634555701358       0.28326639654917
C        -0.63111268031321       1.63260810932592      -0.28270667016752
C         3.27663677513825      -0.73468470521468      -1.20571275691997
C        -3.26480934401761      -0.75891086153972       1.19570485380783
H         2.19276832598339      -1.19181904178585       1.29497571796148
H         2.46917048321957       0.44118612178522       1.98093574491179
H        -2.17252894847801      -1.20308273378398      -1.31001875286373
H        -2.46030513762271       0.43220015220879      -1.98619508720824
H         0.00968512681344      -1.48895725886750      -0.00394719346253
H         3.53281298307075       1.16768282421087      -0.19498723384577
H         4.38091590392305      -0.21736248736302       0.57534588890154
H        -3.53568275473006       1.14161066223570       0.18598166566134
H        -4.36999435657986      -0.24992723310008      -0.58729784910083
H         1.21266205608275       2.50566803698253       0.55417253856977
H        -1.22160585378300       2.49837720385154      -0.55210726048263
H         2.40873125195582      -0.36985938407936      -1.79461658319294
H         3.12456512438772      -1.80623830548529      -0.95599808881453
H         4.18937559833934      -0.64265660965076      -1.83063594727763
H        -2.40014138884865      -0.38828093204183       1.78575950332111
H        -3.10521648322587      -1.82926070159239       0.94579940421895
H        -4.17885711177711      -0.67323559530600       1.81966446869877
B         2.37559433748532      -3.89781525404180       3.92524382568531
F         2.85867997185661      -4.95386251482240       3.10753528182332
F         3.47332130749962      -3.16222350652366       4.44605448796629
F         1.61651281209191      -4.43834792542557       4.99706043827290
F         1.55319896970574      -3.03744473295304       3.15090602537044
