67
C19H28F18NP optimized with ForceField in AMS.
N        -0.76676821458442       0.50028762523257      -0.22219922628629
C        -1.77872948058642       0.23942971427057      -1.29799137356980
C        -1.27749245877958       1.59751324602241       0.66371861348605
C         0.47722976953635       0.98557118908992      -0.91437972158931
C        -0.50005921631738      -0.72962843673585       0.60449971900333
C        -3.19000031017537      -0.07653929963808      -0.77360937012079
C        -2.68499020738258       1.33704955182064       1.23723455021207
C        -3.69042640839310       1.04804039458857       0.12699595379896
C         1.69966757363608       1.24963485720195       0.00024298590717
C         0.15807940352740      -1.91486471103427      -0.14452923618582
C         2.90420048508564       1.70885305126841      -0.83152476697906
C         0.41496292513389      -3.08466959989258       0.81445944501400
C         4.12573036553824       1.95702150941394       0.04843150045640
C         1.08213233036742      -4.25391624142295       0.09521005533553
H        -1.45609306626702      -0.58162903194780      -1.97119791319778
H        -1.87511199991688       1.13467151520769      -1.95640905123943
H        -1.31858942978861       2.56188415496355       0.10631604742417
H        -0.59987523751941       1.75865289407911       1.52982612366806
H         0.26211038881455       1.93486414954652      -1.45832998489974
H         0.78163211725579       0.27009065561983      -1.71055697060168
H        -1.43521175959666      -1.11459576256844       1.05518596527252
H         0.13605369629301      -0.47159416762876       1.47942788250052
H        -3.21371093064460      -1.04687290803428      -0.23660217098950
H        -3.88095456427393      -0.17399395839820      -1.63895771142245
H        -3.01858503631064       2.23909380591748       1.79459829315740
H        -2.66857317266602       0.50013635033376       1.96606443565979
H        -3.84801845287173       1.96766390157415      -0.47904407491853
H        -4.66608156621516       0.75986482118779       0.57422026892403
H         1.99285544524999       0.32855149193601       0.54319683374645
H         1.46480289670855       2.04256368931653       0.73969523318617
H         1.13142564028527      -1.61501316765742      -0.58217996584666
H        -0.50531592539609      -2.27530465184058      -0.95665195557173
H         2.65308352560743       2.64856462547098      -1.37013823482526
H         3.15919557346997       0.92997051276357      -1.58302896483433
H        -0.54756881874170      -3.43232782516136       1.24917937557017
H         1.07608536196887      -2.75176078146101       1.64424283223157
H         4.40822995073085       1.02895503233464       0.58978207367981
H         3.91537373396171       2.76229832183016       0.78418697832453
H         4.97974309820178       2.26907842862984      -0.58809438803993
H         2.06142695782452      -3.94011636054874      -0.32526956184135
H         0.43187362756919      -4.62391210030032      -0.72587384977218
H         1.25404567559712      -5.08295379242723       0.81353318475608
P         9.06229853486275       5.36413097876664       0.78394515866853
F         9.59850149295990       5.95277516728721       2.31367526420066
F         9.36672379201542       6.56485915266316      -0.41400272335206
F         8.97994184312840       4.08406294660711       1.93077662971837
C        10.96922298231052       5.26331902213755       0.47951540608323
C         7.69466395009687       6.61662057669110       1.33907540899332
C         8.04842012056207       4.09525228329147      -0.24149757475088
C        11.72524015753900       4.18616781810946       1.28737635311932
C         6.56958463980693       6.94180800243939       0.32344199167725
C         8.73387865899134       2.77207691594650      -0.62916530205523
F        11.54407638090436       6.48535150964364       0.80940177749304
F        11.23401970919295       5.04707511101473      -0.86381057926497
F         8.28580435387289       7.83508806305551       1.65935538886723
F         7.08277001667347       6.12574583832440       2.48266540820315
F         7.65230663226654       4.70746812079916      -1.41711239425990
F         6.91190964660519       3.75374815236439       0.47198460768234
F        13.07803995935528       4.28980676426875       1.01576305585361
F        11.32037068663980       2.91712296158307       0.93646843033305
F        11.54987486048713       4.35660052100106       2.64835800572381
F         5.83025674616914       8.00598326687225       0.80978607078745
F         7.07079784053416       7.31011993746549      -0.91062334104547
F         5.70017591887691       5.88207350523089       0.16499466705336
F         9.90917180219142       2.98950748485791      -1.31463819079119
F         7.88791393156396       2.06467052583221      -1.46544773234528
F         8.97113879245721       1.98621945432425       0.48336758632409
