28
C10H16ClN optimized with ForceField in AMS.
N         1.74971868677836      -0.04999492605499      -0.52675652160094
C        -0.62229292039105      -0.00202229734150       0.10295633640141
C        -2.06645405243943       0.00479532111344      -0.40754571817864
C         0.37978291409546      -0.07063728705989      -1.05315941489681
C        -3.05461707507828       0.08311281364999       0.76160482628856
C        -4.49579111475653       0.10710982381052       0.26401683408002
C         2.36815149842653      -1.22493632814502      -0.19686869793014
C         2.37905780264599       1.14728734194183      -0.32089470791732
C         3.65147104244869      -1.21960659553917       0.35505312814087
C         3.66242351967974       1.18804758486992       0.22917576137094
C         4.29949133738499      -0.00415617158293       0.56966595718097
H        -0.46917516797932      -0.87981948595456       0.76879146687978
H        -0.43426284391009       0.92285698994922       0.69152498054862
H        -2.25628753479370      -0.92410673130995      -0.98972321668516
H        -2.21698638329024       0.88006449935463      -1.07748683158985
H         0.20909816053179      -0.99686592911859      -1.64662415584877
H         0.22094389066888       0.78834314128764      -1.74322915456110
H        -2.86378537275932       1.00427560608966       1.35465751196070
H        -2.91792292135696      -0.79787080825161       1.42618872799330
H        -4.67088242603621       1.00388989443110      -0.36751949437244
H        -5.18854762675388       0.14063969183863       1.13112080013694
H        -4.71119951164022      -0.80600543900425      -0.32871243292506
H         1.86548173650051      -2.17318814366110      -0.34727427896549
H         1.88494584983984       2.07923704698492      -0.56959400387967
H         4.13471482046171      -2.15052079702614       0.62152774176975
H         4.15404471240255       2.13736871826791       0.39732601558813
H         5.29075361188772       0.01412958391533       1.00384775189322
Cl       -6.65626628236751      -2.81189886895506      -1.34809020968181
