22
C6H14ClN optimized with ForceField in AMS.
N         0.58369224519469       0.02831674970940       0.00220389175749
C        -0.31149156505811       1.09001186935474      -0.53449171970953
C        -0.30373882463759      -1.03561774332980       0.54648471420134
C        -1.72939821290517       0.76346197799761      -0.10074340084898
C        -1.72049948627992      -0.73104796539951       0.09461694530742
C         1.45046323495055       0.57638802900115       1.07243768120522
C         1.44167314010127      -0.51716442320044      -1.07669494352519
H        -0.29631756413172       1.12464067900511      -1.64955893127169
H        -0.03518638703670       2.11177111154572      -0.18416085362772
H        -0.29931163397988      -1.05267403423275       1.66208788019115
H        -0.01160352824739      -2.05828470065123       0.21433933980141
H        -2.47602278502084       1.07252656388190      -0.86434459245514
H        -1.95263305747448       1.26665347023496       0.86627739792890
H        -2.47288796440390      -1.05001290876577       0.84849338574218
H        -1.92441422404758      -1.23818180478740      -0.87456910129021
H         2.13557134254138       1.35563159919030       0.66924573104604
H         0.83965452100982       1.04350759920131       1.87720737189073
H         2.07013056427283      -0.22635510256989       1.53137237947102
H         0.82460671679989      -0.98272704006061      -1.87761735994341
H         2.05571366247638       0.28776601874675      -1.53920922382192
H         2.13247881996743      -1.29555432555188      -0.68189893208342
Cl       -0.05884282339096      -5.13055039251966       0.13864897793433
