48
C14H28F3NO2 optimized with DFTB in AMS.
N         0.14149291582908       0.21639634060962       0.09884892834643
C        -0.60537593845319       0.86816728212282       1.23496392471136
C        -0.79493088883524      -0.26043859096830      -0.98310712924428
C         0.88274586481757      -0.97266407678726       0.64300866060988
C         1.07774255353618       1.23849628262378      -0.49742275163172
C        -1.72747600310670       0.04158904698127       1.85522251868520
C        -1.74307787949606       0.79229681976819      -1.55883621879655
C         1.83928750074162      -1.65819998580841      -0.33244457286343
C         2.19578529259030       1.72082910099618       0.42410258291317
C        -2.38842796731830       0.87589289795375       2.95424716565194
C        -2.65945548594102       0.12820508734314      -2.58441733960718
C         2.51850066109931      -2.83265400281443       0.37239635956588
C         3.11195035234660       2.65634006964432      -0.36578226884155
H        -1.00441070083182       1.80864536883705       0.84785871971940
H         0.13471239685825       1.10761957800234       2.00050907676097
H        -1.37019719054892      -1.09034055712612      -0.56398059111775
H        -0.16816908216143      -0.65486573323102      -1.78674417561449
H         0.12944048654378      -1.69261688140537       0.97172630746912
H         1.43445479095759      -0.63414590612054       1.52302950553998
H         0.45974592057235       2.09598268271622      -0.77579944201071
H         1.49719840978983       0.79833803380725      -1.40564884567704
H        -2.48071190943925      -0.21834096327901       1.10748112362337
H        -1.34197340674405      -0.88659510523990       2.28807712438702
H        -2.34778398464311       1.24495166802182      -0.77242521590288
H        -1.18107261907021       1.59287372986707      -2.04163497302344
H         1.29738363448343      -2.03062122312904      -1.20530133868302
H         2.60471564418250      -0.96048906236172      -0.67873613103976
H         1.77622939993469       2.27002288197427       1.26958131465679
H         2.78471737123036       0.88503320032111       0.81193774148863
H        -3.19572404534116       0.30666741389432       3.41376685110154
H        -1.66229771910099       1.13876586375855       3.72362295466849
H        -2.79982327179378       1.79429279256541       2.53600831963059
H        -3.32467790297334       0.87764982939249      -3.01109508366748
H        -2.07759731562020      -0.32020115100328      -3.39118071136660
H        -3.26561273809873      -0.64954067704442      -2.11726863575916
H         3.19946602522978      -3.32930317768250      -0.31771372874339
H         3.08855090965124      -2.48422612240426       1.23408479376583
H         1.77775749497050      -3.55681109361866       0.71297616630097
H         3.89321182155683       3.03958977498821       0.28939251190717
H         3.57842664697295       2.12773846797151      -1.19827242018823
H         2.54320992321772       3.49956422705147      -0.75547706498604
C        -1.24909972666764       4.46550664356130       0.12616764003074
O        -1.13988767398021       3.35822605692698      -0.42210216882424
O        -2.01421160311600       5.39089051369073       0.00102282715404
C        -0.08821389163869       4.65673794829566       1.27173253454385
F         1.14989665817039       4.70834569129587       0.72216787991710
F        -0.05737118484487       3.57085757693515       2.10568587657152
F        -0.21227956281791       5.72887807580637       2.05536860826793
