26
C8H14N2O2 optimized with ForceField in AMS.
N        -0.53255750889288       0.16301813287345      -0.35961855730970
N         1.64826295055734      -0.09695541826690      -0.01846394751213
C        -1.92840905331222      -0.13176648758388      -0.67212678895153
C         0.49615205424517      -0.70676442987163      -0.35698293930376
C        -0.01316459498816       1.35960574326768      -0.01642178354423
C         1.34164511640282       1.19788352953069       0.19379063509022
C        -2.76504581740867      -0.14584654599303       0.60148147425233
C         2.96267379715174      -0.71141255431169       0.11215533079896
H        -2.32343361093948       0.63294260151893      -1.37540691667832
H        -2.00563859344271      -1.12577979400769      -1.16471898983479
H         0.40628392194447      -1.76105767704653      -0.58795842529359
H        -0.57598576975885       2.27965429660391       0.07345842040349
H         2.04745992795972       1.96478843698710       0.48569881731271
H        -2.37784160880262      -0.91780524610475       1.30017525127483
H        -3.82017956895089      -0.38504614762388       0.35269549919841
H        -2.72935425851058       0.84687876783702       1.09769350465877
H         2.90058046092835      -1.80577618248959      -0.06841340895197
H         3.65801223204890      -0.26548372954834      -0.62811526600455
H         3.35572322546722      -0.53857454163971       1.13603756237705
C         6.70517330609531       3.10324826438619      -2.54528348679520
C         6.14116844452543       2.60145593914276      -1.25361386376193
O         5.08697737468788       1.98749327731826      -1.24730484804666
O         6.73048997772230       2.80369052966468      -0.20411047514505
H         6.92066800588806       2.24540340137645      -3.21630080376586
H         5.97074745013921       3.77522346185543      -3.03693698911241
H         7.64600543144312       3.66753802362505      -2.36971935195508
