47
C13H26F3NO3S optimized with ADF in AMS.
N        -1.00669605391422       0.42807641921304      -0.16652237088133
C        -1.28306905327726      -0.52592961769379      -1.30833669499222
C        -2.33608434190810       0.84770929215243       0.46140797620891
C        -0.13350572889801      -0.20803673421696       0.89981623083510
C        -0.32925707762369       1.65361017903441      -0.75558362213522
C        -2.08596776532561      -1.74308694746393      -0.88160266382721
C        -3.18473656830442      -0.33760618580709       0.88868468159720
C        -3.41603315833875      -1.32574322218692      -0.25275444199996
C         1.23023709900398      -0.67905019126623       0.43420898347883
C         0.19148226729774       2.66370661334726       0.25050445590724
C         2.00887592695157      -1.23496333724692       1.63211426016165
C         0.65566674004692       3.92175111670218      -0.48164644393903
C         3.39649537832584      -1.72545461503726       1.23447433197844
H        -0.31287374141401      -0.79857152978004      -1.74578581694634
H        -1.84338405630530       0.06111311731076      -2.05563060223622
H        -2.84715459557622       1.43695272289256      -0.31861434473257
H        -2.09896764804582       1.49261163399805       1.32469214523310
H        -0.70724085013043      -1.03678636801370       1.32699805186980
H        -0.05819008379751       0.53103959270808       1.70442793924031
H        -1.08461882563343       2.11510192380975      -1.41285524572888
H         0.48591737154900       1.27985916243119      -1.39563768539195
H        -1.50093314338578      -2.36106256917240      -0.17965905025285
H        -2.24887566731122      -2.36193750605784      -1.78104777719362
H        -4.14222899163702       0.07767545675258       1.24681046774776
H        -2.73054948176808      -0.81861497015715       1.77069468648782
H        -4.04398077993724      -0.85293406477846      -1.03135725455174
H        -3.96292513248852      -2.21160839863924       0.10725134512622
H         1.80972354678650       0.14981900692778      -0.00839509447481
H         1.14678207372841      -1.46885236029706      -0.33392929879342
H        -0.57606525131565       2.91638103756193       0.99698639307479
H         1.03382963390016       2.23943554015314       0.81867287282746
H         1.43282352891399      -2.05740213847563       2.09103581256224
H         2.08829682671533      -0.45238544700015       2.40376777880831
H         1.03774997215427       4.65607550511187       0.24226650432753
H         1.46137065016114       3.70174824050966      -1.19988033446977
H        -0.17337769408015       4.39289693937482      -1.03304814081243
H         3.99052700132788      -0.91083962401177       0.78996691385014
H         3.33648034088815      -2.54120419365429       0.49589908628620
H         3.94525479285574      -2.10173676812292       2.11055917403579
S        -1.32374978585691       1.50992530446754       4.10670930913935
O        -1.48895748730959       2.48894717920164       3.00102027881192
O        -1.33419504641998       0.10227084717324       3.65324503076019
O        -2.05024530354340       1.80760163765940       5.33808424805047
C         0.47688099934679       1.76548251515855       4.58683650204002
F         0.68833565058229       2.99299820617651       5.12149753966251
F         1.30686937720396       1.65843056766521       3.48761946810102
F         0.89227777540664       0.83633175248616       5.48588689624924
