39
C9H20F2N2O4S2 optimized with ForceField in AMS.
N        -0.39985444585731       0.15989675159276      -0.05884913249307
C        -0.96269377214480      -0.87696735773245      -0.97853127324124
C        -1.46938126288519       0.39621839679801       0.95941860242709
C        -2.43065072787037      -1.06522579186220      -0.64311212638077
C        -2.51546366542574      -0.69115024494598       0.80958337992895
C         0.82977945581303      -0.36276119098148       0.62167320447092
C        -0.13336726336990       1.41810566339734      -0.82802025182091
C         2.02662373973836      -0.61682443208934      -0.32670023175877
C         0.47802833550851       2.55847274215791       0.00601420825641
C         3.16839025724927      -1.31465097305719       0.40771897287513
H        -0.47230346840708      -1.86883472732530      -0.84641953856145
H        -0.85278838894121      -0.61697680449597      -2.05589253272670
H        -1.99129363508475       1.36892247126225       0.80416145878428
H        -1.08661051716060       0.41259315335549       2.00546658894254
H        -2.76734355640053      -2.11068914391422      -0.81577070943106
H        -3.04907035841071      -0.36705539176416      -1.24998465651228
H        -3.53262957005362      -0.33237931891497       1.08032741238755
H        -2.24574918192059      -1.56536075455193       1.44292567182043
H         0.58591229619627      -1.31493999450154       1.14787977043341
H         1.16193096521060       0.33845138209749       1.41910649790105
H         0.53950172779925       1.22085895235847      -1.69123532798052
H        -1.08097387362539       1.79265452842884      -1.27573104555923
H         1.72550636480724      -1.24730651264499      -1.18818692759510
H         2.41814829787389       0.34273726428579      -0.72212433512284
H        -0.10873150236114       2.75429139231321       0.92601968293267
H         1.52735244559894       2.33332512439696       0.28484408677206
H         0.48873755525310       3.48866777768414      -0.59947594976676
H         3.52437802347076      -0.68652868360143       1.25178569962237
H         2.83375363431663      -2.29900871994372       0.79817251571522
H         4.01432767809124      -1.48047522336802      -0.29239455576373
N        -2.87656201144019       5.06892632173602      -4.22008614642210
S        -2.83646647311212       4.35906594585470      -5.69330331144423
S        -2.36700476370326       4.27434672401716      -2.88468150520720
F        -4.05640161820960       3.21703558565121      -5.78568435588920
F        -0.71386876067416       4.03501586483291      -2.98744336615011
O        -3.04264511953258       5.39896178697489      -6.75761061093109
O        -1.51334281272714       3.67613654595051      -5.90099171064402
O        -3.04996144535006       2.93828832001976      -2.79433831236819
O        -2.68353602295905       5.08833912772903      -1.66244303399953
