48
C12H26F2N2O4S2 optimized with ADF in AMS.
N        -2.32088350601566       0.15917839461961       0.19866567335900
C        -2.53945803312532      -1.09625040912491      -0.61598809117734
C        -3.47957051803882       0.11034031440692       1.17987149681033
C        -1.00389277338244       0.14357453281267       0.94055424380006
C        -4.05403236854380      -1.18510816240819      -0.81679627448305
C        -4.66825464301265      -0.39777618775522       0.37167094252024
C        -2.44764187771316       1.37509334592272      -0.70877422639560
C         0.22823137469396       0.11749321918983       0.05546563072328
C        -2.19680885410236       2.70327202561959      -0.02634911726632
C         1.48465604934025       0.08320565044557       0.93061495758963
C         2.77401496801799       0.04982879978491       0.11375671185150
C         4.02681485148903       0.02907827019093       0.98800740068538
C         5.31807754502837      -0.00327473419793       0.17453050231375
H        -2.16612341724448      -1.92567755876386       0.00274472725737
H        -1.95352320463552      -1.04277455751912      -1.54179506812731
H        -3.60098928456930       1.09878974194158       1.63536322584745
H        -3.18406171147329      -0.58761293410920       1.97544961651180
H        -1.04132924674377      -0.74705889746202       1.58628798917849
H        -1.00059188103285       1.02135932608715       1.60233576403263
H        -4.36932130776285      -2.23792953649824      -0.83155806910024
H        -4.34951103572820      -0.74684742552129      -1.78137187796417
H        -5.29439938897535       0.43530965005563       0.02092306581916
H        -5.30540403328795      -1.02433085837055       1.01122482083766
H        -1.74313197181597       1.20656356346940      -1.53646464278743
H        -3.46613478164050       1.33185633039591      -1.11924010976258
H         0.22276479504372      -0.76495041361834      -0.60876379608537
H         0.26919749539729       1.01412083132063      -0.58641756139013
H        -2.42426180734170       3.49843159641187      -0.75303530247596
H        -2.83513419445164       2.86192868938644       0.85547981839458
H        -1.15243240748495       2.82436489427977       0.28913983024425
H         1.44606737259194      -0.80205790957977       1.59116452965569
H         1.48504810366708       0.96533742273092       1.59510659041316
H         2.80971156415659       0.93190747742432      -0.55308263465044
H         2.77221220427318      -0.84011045923167      -0.54412982832279
H         4.02091822267795       0.91776775538024       1.64439049139826
H         3.98526881547718      -0.85013026313754       1.65660725764157
H         5.39210331211927       0.87915746689304      -0.48163212655025
H         6.20489985731557      -0.01230030190342       0.82597832109475
H         5.36012358889299      -0.90037174903914      -0.46417965262019
N        -3.40779084661560       2.49536961857035       3.32234075754231
S        -2.02195755578968       2.16224771361034       4.04892153371980
S        -4.83486055356631       2.01142764525682       3.91797541411589
F        -1.93307862974309       0.48228841405483       3.99396195192735
F        -4.96478623619856       2.80475801509954       5.34429077362104
O        -0.96091781759440       2.55980688113083       3.13007429844478
O        -1.93088272628521       2.46286547267067       5.45994154703290
O        -4.88781826103295       0.60204656833410       4.26705036142876
O        -5.85199755583403       2.58471382844331       3.05827272794634
