47
C13H26F3NO3S optimized with ADF in AMS.
N         1.29137768545702      -0.05147761848310      -0.01183989916577
C         2.35666357462547       0.31165294083485      -1.03215012857709
C         2.08738163875417      -0.86863344987749       0.99607415538579
C         0.72509857048351       1.17805785240826       0.66294683457873
C         0.22771401090353      -0.89010153123653      -0.68395794565599
C         3.20694471269295      -0.94348435077337      -1.18637437923178
C         3.08442767237630      -1.68345575542786       0.17014735887889
C         0.02253451365565       2.14280852276340      -0.27293348184493
C        -0.95784498950268      -1.25933448819224       0.19076932690937
C        -0.36641920475628       3.41137702341489       0.49086431387307
C        -1.88153139960755      -2.24371355788213      -0.53189898226902
C        -1.07361439917973       4.42737820371044      -0.40067864959876
C        -3.09496243897825      -2.61651801908530       0.31536613586662
H         2.96166566707620       1.10521514903403      -0.57349582695011
H         1.87145652883721       0.66167434704313      -1.95153735330957
H         1.38982938130414      -1.45893546388228       1.60340606751982
H         2.60168773970485      -0.12755696623210       1.62911877566035
H         0.04805451568707       0.81981518370614       1.45351548689311
H         1.58665117697659       1.65571833173718       1.15811346284789
H        -0.10783031141880      -0.32174855197574      -1.56436550661918
H         0.73590256400593      -1.79676318853813      -1.04370278774916
H         2.86075433302007      -1.57158868296064      -2.02111522181678
H         4.24503726425365      -0.64332935780018      -1.38566717798857
H         4.04865959246846      -1.69801517318775       0.69700676666630
H         2.75202805933442      -2.72294489149280       0.02939809484013
H         0.69658758252900       2.42748377760425      -1.09815348846060
H        -0.88231586620767       1.69270129180942      -0.72070621884784
H        -0.61818566018637      -1.71670306167473       1.13529832134252
H        -1.53446561635654      -0.35760423673053       0.45645438126616
H         0.54890736030651       3.85639905847804       0.91731292883251
H        -1.01514836923790       3.14182547821423       1.34381364335795
H        -2.21509423588034      -1.79959064071235      -1.48711567041190
H        -1.31261483189078      -3.15460878325237      -0.79090041063820
H        -2.00643922456213       4.01361777529295      -0.81679776808709
H        -0.42868292639240       4.72428043795527      -1.24283466061455
H        -1.32995451132335       5.33806913879628       0.16147523868717
H        -3.69471907118488      -1.72576997623442       0.55952656566438
H        -2.78380139114588      -3.08295384597720       1.26334791656224
H        -3.74783681411210      -3.32853731853581      -0.21177844819638
S         4.59665222236249       1.96925713143710       1.70538133942058
O         4.82797337196427       1.04538041669672       0.57198304047979
O         5.73757809690767       2.24747632440807       2.57076051410162
O         3.29608780477280       1.73928344022369       2.38791410802430
C         4.28050015448965       3.60735256506179       0.83427451101408
F         3.19049184330279       3.51232239743104      -0.01177195494940
F         5.33778090970976       3.98661548536833       0.07567175207997
F         4.00874444266153       4.60390129611558       1.71354649942934
