40
C10H22F6NP optimized with ForceField in AMS.
N        -0.55894444844704       0.30018294417849       0.14890530840697
C        -1.56030214930731       1.22645297101613      -0.47017036614735
C        -0.88810709662429      -1.11894795831717      -0.18797265463671
C         0.77557380551221       0.66463611726805      -0.43478181756539
C        -3.02758855367235       0.87485502270316      -0.16158189087221
C        -2.33730075885437      -1.51179887908556       0.14860754373634
C        -3.32914730064113      -0.57317928656064      -0.52764872609705
C        -0.52833426981118       0.50250335305528       1.62405080413136
C         1.98645317055682      -0.14886074067248       0.08628519643928
C         3.28651926266084       0.34126249655716      -0.56700730518589
C         4.49752024929340      -0.42048647138224      -0.03727479110950
H        -1.45439716283210       1.22279092671449      -1.58023071554556
H        -1.37847313654672       2.27500465162693      -0.13959028203395
H        -0.22595531919834      -1.82140770082077       0.36362441516682
H        -0.72588994196688      -1.30466590185009      -1.27488121980519
H         0.98634251582906       1.74353892045334      -0.24584187655576
H         0.74961268622554       0.54434144281128      -1.54305627381911
H        -3.68977216512801       1.53787424680802      -0.75942484046632
H        -3.27089786714470       1.06127029739495       0.90445324747868
H        -2.49712220430648      -1.50888057522175       1.24726750959752
H        -2.52479310717266      -2.54712881115395      -0.20932083291904
H        -4.36095449699526      -0.82899982877669      -0.20406944264886
H        -3.27102392938031      -0.69928715344709      -1.63176187522883
H        -1.53203571776653       0.41773877467560       2.08275954677582
H         0.09674311519913      -0.26335291781833       2.12997691420745
H        -0.13215167392627       1.50969379779752       1.88328978197399
H         1.86265140172052      -1.22473375131779      -0.15497113754570
H         2.08986627767729      -0.03133171864659       1.18413890262046
H         3.42907028102268       1.42369084749612      -0.35559894955720
H         3.22921317108771       0.20258504712036      -1.66876306675075
H         4.39947879422712      -1.50322965516024      -0.25817136622631
H         4.59374174770070      -0.27718448735254       1.05995083831112
H         5.41770731980713      -0.04057024958674      -0.52760756539759
P         2.79608360875995      -3.84029540606158      -2.94059751040744
F         2.17113116284503      -4.15353233078143      -4.50975392950668
F         2.25815270981839      -2.20941880625188      -2.98434196766040
F         1.28264980720723      -4.29902038294747      -2.27023374822732
F         3.40711199394829      -3.65753058572433      -1.34669517882395
F         3.37675912638218      -5.45672274703181      -2.90994049909671
F         4.28570324194072      -3.29835467930769      -3.60290186640905
