36
C10H23NO2 optimized with ADF in AMS.
N        -0.19132647888015       0.10269132938431      -0.04986891969732
C        -1.20145885900983      -0.09756347912184       1.06940831721538
C        -0.85406040733235       0.70155295179688      -1.28895982578992
C         0.36513572037535      -1.26343616135265      -0.43772549506502
C         0.88398081210181       1.05346740900034       0.42996349700348
C        -2.38592711496730      -0.97322452462858       0.71556038968536
C        -1.67086312977649       1.95430269947625      -1.05224174067824
C         1.55080638287709      -1.22199892149334      -1.38082093438325
C         1.71375415438309       0.57697272575833       1.60788487164970
H        -0.63085817971184      -0.52848143520888       1.90462729844418
H        -1.52041769562512       0.91297029136371       1.36683416244731
H        -0.03093097313787       0.89415740028235      -1.99125421861218
H        -1.53614582901923      -0.07055686645836      -1.70773611737108
H         0.62278885635461      -1.76857304430887       0.50589199108426
H        -0.48177596331935      -1.78215042490757      -0.94736830005913
H         1.52479484377635       1.24852603894013      -0.44158167243672
H         0.36799268806944       1.99130136108938       0.67863553082548
H        -3.07381284614075      -0.95378157886284       1.57509222474526
H        -2.91859675918333      -0.63342541388193      -0.18928295381052
H        -2.08871959303977      -2.01457299748580       0.53153586717122
H        -2.07817962517891       2.23764221014322      -2.03463842343806
H        -2.54216870701669       1.75465460282710      -0.41341238249484
H        -1.10442692454929       2.81113628772682      -0.65744854968664
H         1.84414984219107      -2.26568423980575      -1.56894580248679
H         1.27767724581241      -0.79530397784013      -2.35575893295300
H         2.43177266402474      -0.69673482964339      -0.98142793946500
H         2.48072264252779       1.34022352763044       1.80880686929731
H         1.11858323269436       0.46216435229896       2.52416611822793
H         2.23099399739483      -0.36944997303965       1.39865486615360
C        -3.77226214566078      -2.69759267799905      -3.47511905638618
C        -2.86694640324256      -1.86951939301069      -2.55469556150579
O        -3.25917437348017      -0.68987349397170      -2.29054607642530
O        -1.79386744309167      -2.41969871454095      -2.14974965598130
H        -4.82938629507018      -2.46005805745902      -3.28849991567836
H        -3.55434880482305      -2.42815716945624      -4.52142345403376
H        -3.58947610472626      -3.77325311124097      -3.35051237231205
