61
C17H24F18NP optimized with ForceField in AMS.
N        -0.55124892966504       0.09399242964693      -0.09558257200854
C        -1.54907847487566       0.54465545266228      -1.12007118410588
C        -0.89581414295033      -1.30144095169455       0.33277764384871
C         0.78631970000689       0.06875413160914      -0.78325076040165
C        -0.53771294838121       0.99900023926099       1.10617899347662
C        -3.01307246229599       0.44810255779818      -0.65766852517142
C        -2.35094378359378      -1.47047772534412       0.81561324657783
C        -3.34474900886204      -0.97803897384236      -0.23147008033811
C         1.99794200504769      -0.30206429621335       0.10908675643205
C        -0.10784577836985       2.45411546750726       0.84290966179308
C         3.29172487643540      -0.33118719863506      -0.71553599850873
C         4.48900301473172      -0.72334414166598       0.14659062863948
H        -1.46065752656623      -0.08094918228265      -2.03935207562403
H        -1.34785368489018       1.58346060257711      -1.45432177325135
H        -0.24119259901065      -1.63489298986897       1.16606978943600
H        -0.73792107490021      -2.01653266994558      -0.50735851362646
H         0.99465270869967       1.05160831214940      -1.26193397923629
H         0.76153961557030      -0.65913600323849      -1.62755840720261
H        -1.53531901172998       1.04923750090686       1.58295514178619
H         0.12319164049956       0.58457269160766       1.89757782537332
H        -3.67729537092615       0.73100057592755      -1.50286384874684
H        -3.22394697741949       1.16046867508134       0.16613387799383
H        -2.51438946475171      -0.94033349873096       1.77688267930845
H        -2.54256295258376      -2.54807036348341       1.00927571753473
H        -4.37359311726277      -1.01148730098667       0.18735672229151
H        -3.31237757948152      -1.64879588081630      -1.11833029098191
H         1.85462206021297      -1.30420139869335       0.56151040590886
H         2.12820112401501       0.44313247971017       0.92017111218264
H        -0.10953808189199       3.00561078320486       1.80637394570128
H         0.92007066887811       2.51946628142496       0.43538611307745
H        -0.81867634223375       2.97538018826046       0.17137898251026
H         3.47936388223860       0.67303680930218      -1.15459436990053
H         3.19314864296091      -1.06514426618783      -1.54507529582214
H         4.34348997912915      -1.74067437203962       0.56824138926093
H         4.62211455625142       0.00260112801891       0.97635965961240
H         5.41014680526040      -0.72570182480879      -0.47388108915740
P         7.24943082234988       3.45446180354271       2.13752338129817
F         6.92635813232554       4.29133708624311       0.66856787622031
F         8.91863717695615       3.52857693806372       2.56110194308334
F         5.52953753137541       3.48915276595949       2.09730319407596
C         7.44988006006926       5.29794212837596       2.70577502897012
C         7.76524493997641       2.25936441927014       0.70477603361076
C         6.79326405078183       2.24549558353053       3.57709688656761
C         6.23267210215166       6.24480620261479       2.52218407485754
C         8.44545585314486       0.93379175713486       1.10458176029996
C         6.27253674272866       2.87549754576911       4.88467615479433
F         8.49911357045865       5.87613174803750       2.00116921969415
F         7.80114818421757       5.33324062852936       4.04001448447514
F         8.66640594328153       2.90531465936183      -0.13700328558813
F         6.63856744408795       1.93055588390808      -0.03598176086801
F         7.92323446187907       1.52897597069298       3.92894093147027
F         5.84594648545213       1.32866740521434       3.14119649711558
F         6.51653152870572       7.45359767209013       3.13299828954844
F         5.08422861322418       5.74503856266603       3.09785368291833
F         5.98803770448312       6.50291643340981       1.18509677575548
F         8.87762272977480       0.29397496408989      -0.04439826683032
F         9.55115026659671       1.15243199055517       1.90525204021989
F         7.56448035848509       0.08315622193997       1.74202198273511
F         7.30400551966190       3.47034976355006       5.58636398663754
F         5.75044815011691       1.87512883877057       5.68607835581109
F         5.27325771941945       3.79493677430166       4.65675995986565
