44
C12H24F3NO3S optimized with ADF in AMS.
N         0.10150575537972       0.14489311934364       0.52312434896517
C        -0.63310249519487      -0.08219692896437      -0.77876862958220
C        -1.02286365196920       0.04024542407123       1.52617529574363
C         1.17041847023095      -0.90282480447800       0.78822606467372
C        -1.97539307333321       0.65109927495189      -0.61767201697716
C        -2.14885884648694       0.85900744226286       0.91075221347074
C         0.71992350388435       1.54950275845321       0.50677874364594
C         2.03826042321123      -1.23975352188753      -0.40858681905265
C         1.00404163539481       2.12815784027330       1.87334639820601
C         3.13516848828138      -2.21584301525431       0.02352699223724
C         3.98663716038121      -2.68847134670171      -1.15218627614167
C         5.15508661547325      -3.55864043753218      -0.70047196743898
H        -0.00769315274674       0.27151311864822      -1.60780690771665
H        -0.77395676279491      -1.16854057147763      -0.87368070716064
H        -1.28754051967968      -1.02739824309851       1.57300267094785
H        -0.67331598637722       0.36695436723768       2.51237563760828
H         1.80349839202338      -0.50006323931667       1.59186864037586
H         0.63711587961209      -1.79735809491045       1.14822001701044
H        -1.97662012586602       1.61092263925011      -1.15265768869949
H        -2.78522976606448       0.04241966065839      -1.04417846653391
H        -3.12801810041150       0.52121750011935       1.27897650016718
H        -2.04630330779295       1.92103881205694       1.17863675587494
H         0.02243372407336       2.18475352231514      -0.05724003556974
H         1.66080811822637       1.47880129354665      -0.05938068367532
H         2.52299258148730      -0.33006385937988      -0.79530218879348
H         1.43868983035015      -1.69345553788541      -1.21680383857844
H         0.09334153827285       2.38475337866044       2.43503823837654
H         1.65850565909614       1.47430622842581       2.46667973630918
H         1.58091961492357       3.04954496909128       1.70205113299031
H         2.68403682309777      -3.09193787683203       0.52885559731337
H         3.77718588023940      -1.69968972683692       0.75683589679349
H         3.35390371346056      -3.24410366303212      -1.86964731830723
H         4.37408064669637      -1.80523861983610      -1.68474402961981
H         5.76334643716863      -3.88716209057356      -1.55614146779177
H         5.80874332474025      -2.99393395330401      -0.01695994042839
H         4.80173669362892      -4.45692826520887      -0.16774567393003
S         4.47688978993753       1.84327255178547       0.66056445490054
O         5.45963387596016       2.53147229367923       1.49546964143963
O         3.55006358035059       2.69166941547647      -0.12112868067863
O         3.81185520558894       0.66920266695712       1.28097398027505
C         5.52636779378106       1.04819175412601      -0.68755325663959
F         6.22955741109000      -0.02021114253202      -0.21759609120693
F         6.41061639101465       1.92929095353276      -1.21509960872113
F         4.74332007946076       0.59036633331906      -1.72049884858127
