31
C9H16F3NO2 optimized with ForceField in AMS.
N         0.15858717595620       0.27900206446485      -0.06558555744258
C        -0.45253575792378      -1.02114228251561      -0.45429062571816
C        -0.92980364411219       1.05207220303652       0.60647700301193
C        -1.95757432641918      -0.85062820815851      -0.42519549817766
C        -2.18062974656498       0.18674021149709       0.64335070245555
C         1.29446074284162       0.08619326152701       0.88769058392184
C         0.60952898570768       1.01619095418304      -1.27480886183428
C         2.47325465918233      -0.72707124776276       0.32555940691401
H        -0.19909195335084      -1.82782395414307       0.27191663485483
H        -0.12382922760601      -1.37442834343661      -1.45874314672175
H        -1.17675079018612       1.99757673566011       0.06843666153307
H        -0.67152011569133       1.36144653152930       1.64585717642745
H        -2.47588090574481      -1.80434128778417      -0.18339964833620
H        -2.31505152295475      -0.46713624179753      -1.40622225644822
H        -3.10078619510827       0.77937494462082       0.44811459274254
H        -2.26375462918886      -0.31080170989885       1.63538027126383
H         1.68831743169403       1.07417339855258       1.21786642221143
H         0.93460096203317      -0.43203000056326       1.80648926645119
H         1.33587703997239       0.42411248406464      -1.87098470242491
H        -0.24788058951900       1.23848675394125      -1.94963231750674
H         1.08910340140941       1.98059435434104      -0.99483548135537
H         3.20038404278053      -0.92073368446775       1.14212891385580
H         2.14178977924417      -1.70547011094325      -0.07701739421014
H         3.00682194053257      -0.16348415409038      -0.46563370098293
C         5.85039537353791       3.30939040080994       0.55486859959680
O         5.51520946964648       4.41546615626546       0.16150542942541
O         6.97720069445589       3.14143922465107       0.99316145937702
C         4.88888919781145       2.15928305704442       0.50384463954962
F         5.43246046760231       1.13570825107220      -0.25000900370916
F         3.69113229519276       2.55243997933222      -0.06714679438722
F         4.64786077006925       1.70060021826820       1.78559039236301
