50
C14H28F3NO3S optimized with ForceField in AMS.
N        -0.69818865443694       0.53100260138763      -0.20346906071138
C        -1.67192051329613       0.27599783567135      -1.31455108226638
C        -1.25422585119521       1.60650082079041       0.68184188059923
C         0.56071991061035       1.04248661671051      -0.84819834909172
C        -0.44066575882070      -0.70693432983624       0.61344389238130
C        -3.08933117591075      -0.08365432952623      -0.83824659846158
C        -2.67574713612040       1.31588454870950       1.20757601351271
C        -3.64286080027775       1.01211638415289       0.06686683120053
C         1.75608614103308       1.28981901349827       0.10551975478905
C         0.22887759802192      -1.88376851705453      -0.13842387606607
C         2.96302037684906       1.83410693781899      -0.66937881159011
C         0.44765175980841      -3.07183673624365       0.80763106885694
C         4.16246932325339       2.03843370860658       0.25105913032907
C         1.10839067808207      -4.24273696669839       0.08560750224910
H        -1.31208520405209      -0.51950258575190      -1.99948030113419
H        -1.76861352891956       1.18578469642493      -1.95289644182102
H        -1.29274099864927       2.57878382694034       0.13816386215203
H        -0.60784967963441       1.76433989706205       1.57192756686269
H         0.35261934946238       2.00296031969204      -1.37517527280591
H         0.89554509951698       0.34674389736101      -1.64989355916638
H        -1.38113395073612      -1.09793587875852       1.04707794829672
H         0.18293551316479      -0.45725978739097       1.49980696230837
H        -3.10443543988696      -1.06441243405245      -0.32013872333584
H        -3.75217354712817      -0.18104431097374      -1.72500357138070
H        -3.04476538555252       2.20858506664392       1.75733184332715
H        -2.66663863738902       0.47733123053675       1.93451000557593
H        -3.81332657250200       1.93532291560304      -0.52970296929097
H        -4.62017885159346       0.68795170405385       0.48534407847775
H         2.06517938462121       0.34508867726059       0.59727777047884
H         1.48433295753703       2.02836653497510       0.88688970802270
H         1.21504246046234      -1.58207587673799      -0.54601621894217
H        -0.41518941044958      -2.22598727701987      -0.97333470650511
H         2.70081166219074       2.80728538738709      -1.13916281138920
H         3.24830085412998       1.12108390894113      -1.47369909856230
H        -0.52924829186486      -3.41048062633168       1.21711501243778
H         1.09638277658901      -2.76276405061470       1.65620350574627
H         4.46710956378723       1.07327462737824       0.70883426313640
H         3.91508415786144       2.76574592584407       1.05326424188543
H         5.01497909245855       2.43471306515247      -0.33605770827563
H         2.10469043337393      -3.94305554510769      -0.30356998152941
H         0.47166008311603      -4.58532787886433      -0.75773397759472
H         1.24304445563039      -5.08695233570207       0.79418898162645
S         7.38068489973032       2.48421640558956      -2.84376484585070
O         5.97489453014552       2.14278280635460      -3.35956052775429
O         7.09942737616091       3.39398360784621      -1.63940884636208
O         7.91027089236137       3.46503607937121      -3.89995560521365
C         8.45301656729232       1.05870327600098      -2.50429610750365
F         8.68758372139125       0.36724020946514      -3.67716743743944
F         7.83624723693841       0.22240982001400      -1.59376915635737
F         9.65445629903549       1.49860450472044      -1.98296999075047
