32
C8H18BF4N optimized with ADF in AMS.
N         0.53570934148007       0.09713191036924      -0.07726162047666
C         0.86781921177149      -0.48474797251285      -1.43320116702664
C         1.76977963186426       0.93883068175228       0.21422229807523
C         2.35543720944189      -0.84115440040787      -1.36094597318903
C         2.94030419931299       0.08321171835208      -0.25913674549476
C         0.40780003448148      -1.00266118561977       0.96953424272974
C        -0.70625782190048       0.95183337604198      -0.14828462480338
C        -0.79639180116044      -1.90175381392722       0.78262295209557
C        -1.09050877407103       1.58260203621475       1.17470547649622
H         0.68007174640306       0.31758950788225      -2.16310175927531
H         0.19538632726078      -1.32425344502263      -1.64827179698470
H         1.81899061156053       1.19811192783510       1.27809046188954
H         1.65400151769103       1.85040580226327      -0.39370733911181
H         2.82433135506416      -0.67932398350375      -2.34278794576566
H         2.49588111989104      -1.90185693403477      -1.10508793164693
H         3.34142613537285      -0.48590079635330       0.59166702847674
H         3.74749680319058       0.72729873936744      -0.63476701806790
H         1.34658594264928      -1.56905577671532       0.93143417751827
H         0.40859341818062      -0.49263169199272       1.94418936341689
H        -0.48375918860069       1.72205619499666      -0.90416913315862
H        -1.50869342297062       0.31233683842720      -0.54711391034609
H        -0.75451471142874      -2.66863478982621       1.57103308405712
H        -1.74916517867459      -1.36660789948341       0.90419033594402
H        -0.80449614175905      -2.43111395243924      -0.18201489363783
H        -1.92019368682257       2.28232433225148       0.99531743925871
H        -1.42191435250702       0.83973333677638       1.91220453442858
H        -0.25663112921783       2.13638835139418       1.62649695265896
B         2.42661931208643       0.48915035710274       3.57231686818047
F         1.00791552344362       0.75990974045020       3.39403839473741
F         3.13984096592148       1.54368006706401       2.92995821225972
F         2.71461859415555      -0.73828469757304       2.88387938712058
F         2.73226366218988       0.39238211817085       4.92633104934156
