51
C13H28F2N2O4S2 optimized with ForceField in AMS.
N        -1.56068531919746       0.06627629191863      -0.09964372075810
C        -2.58893581608398       0.43465801043304      -1.12699032584232
C        -1.77030897985115      -1.36314904352887       0.30211606799243
C        -0.22185028044739       0.18524283471291      -0.77506364099388
C        -1.64808160821183       0.94678048918251       1.11767896238038
C        -4.04069381367543       0.18658723690196      -0.68391026381237
C        -3.20498261155800      -1.68008324402885       0.77039363362412
C        -4.23424152874615      -1.27140140731298      -0.27914045238085
C         1.00978545961249      -0.10206468834097       0.11782134111366
C        -1.33877361817507       2.43725932984539       0.88922968948404
C         2.31149353492945       0.06155246934522      -0.67707323666874
C         3.53253012739093      -0.24601367461767       0.19897796614847
C         4.83465520457366      -0.05792253807194      -0.58710217902781
C         6.05025268710491      -0.39230009530101       0.27300176409009
H        -2.43162911592294      -0.16297334854356      -2.05559999534503
H        -2.48760367503822       1.49382951975920      -1.44278003663823
H        -1.09100249655720      -1.64666907979955       1.13492339606188
H        -1.53822878318269      -2.04485867206459      -0.54866670919092
H        -0.10199325358591       1.19776662314709      -1.22107373279555
H        -0.17129218860396      -0.51583316841409      -1.64066521545696
H        -2.65562908600269       0.90341253695688       1.57376853987799
H        -0.97073852078976       0.57640135242960       1.91726698347611
H        -4.71834832153372       0.41367771939655      -1.53522397257517
H        -4.33226453439795       0.86426787187922       0.14457740503319
H        -3.42621075472984      -1.18191286252226       1.73725076330362
H        -3.29115719671552      -2.77394533342811       0.94861717584421
H        -5.25820000625248      -1.41115709669114       0.12915185958176
H        -4.12960796221887      -1.92296529409124      -1.17455481055738
H         1.04396341552618       0.60462412709012       0.96867435114360
H         0.97120109070061      -1.13910779016061       0.50908372179639
H        -0.30065400091366       2.59723209346878       0.53688400904028
H        -2.05641145226113       2.90399373007531       0.18677185954518
H        -1.44004941497393       2.97194914791661       1.85699666834590
H         2.38321205211049       1.10582144056245      -1.05413343234026
H         2.30232737233576      -0.62978039699801      -1.54862882684853
H         3.46902226970899      -1.29618509548637       0.56091524442313
H         3.53505163800122       0.43257502588057       1.08081326698170
H         4.83342231883946      -0.72013573939994      -1.48038139816131
H         4.91495098923913       0.99676445018504      -0.93010300233471
H         6.01130901378593      -1.45364951721868       0.59902061544351
H         6.97784356822363      -0.23646740131243      -0.31719565278589
H         6.08327105054967       0.26557462407159       1.16759292720676
N         1.32964752386318       2.29247623696989       3.13108318360198
S         1.43923480828529       1.07725677455525       4.22085361150442
S         1.20820645838296       3.85250610466008       3.60851560515223
F        -0.02038088273649       0.92172990462002       5.02657651903501
F         2.68725993574182       4.36413836665406       4.20359276001228
O         1.75986827049740      -0.20899988568175       3.51434683095276
O         2.51662884583806       1.38718883554830       5.22140495438763
O         0.17638467831137       3.97736925821326       4.69392202912400
O         0.81904967691080       4.70959092943510       2.43784866340528
