49
C13H28F3NO3S optimized with DFTB in AMS.
N         0.44331988467091      -0.58478098292409       0.27005273654201
C        -0.69142268746719       0.36206737198906       0.54423633251579
C        -0.05310833416541      -1.91319090642101      -0.25937922508392
C         1.18699278903609      -0.81626127808843       1.56087666323956
C         1.33169394556691       0.03822709930241      -0.77722985665203
C        -1.74466119908146      -0.14104813861287       1.53175704503044
C        -1.09555684188981      -1.83454451879869      -1.37410304848212
C         2.45864391132594      -1.67038303077345       1.46789562789677
C         2.05766096038435       1.31721913483840      -0.37243992071803
C        -2.91522150822151       0.84199385286880       1.56247726574838
C        -1.44024832697623      -3.25492432925332      -1.82379902349636
C         2.24641190703318      -3.10948781638589       1.93469633341932
C         2.92789687653187       1.76327060881083      -1.54927541771998
H        -1.15759393464499       0.58595302706784      -0.41761836503528
H        -0.25187955263754       1.28424322551994       0.93108940293146
H        -0.45969263613759      -2.46371508819766       0.59231617847669
H         0.82495929390504      -2.44248147161593      -0.63219123048552
H         0.48095219865098      -1.28748994997763       2.24827221865897
H         1.42884738228151       0.17274269339203       1.95640322927967
H         0.70327825850728       0.22582512221559      -1.64888332116552
H         2.06624767184096      -0.71257190413472      -1.06512183658292
H        -2.11327028552591      -1.12669106661326       1.24122115479257
H        -1.31949342659009      -0.21965607176951       2.53562275387157
H        -2.00515980439595      -1.33610372370994      -1.02759220592563
H        -0.69585513511350      -1.28185871534823      -2.22603824006370
H         2.86270907464573      -1.67644458966470       0.45638966845355
H         3.20931196563422      -1.20067998152360       2.11087546415588
H         1.35194598750184       2.11435301779172      -0.12151448519433
H         2.69810112618515       1.14112676799342       0.49589695077269
H        -3.65931339936676       0.50225191699196       2.28175573818634
H        -2.57455442282622       1.83538899005615       1.85584343681742
H        -3.38459608204473       0.90893451032549       0.58076530262868
H        -2.20710057827106      -3.21186662974592      -2.59622890074378
H        -0.55918185698125      -3.74586542208002      -2.23580106303446
H        -1.81758118865387      -3.84380571615943      -0.98632233821488
H         3.19983148633495      -3.63588532961624       1.90960493208077
H         1.86062450198278      -3.13291658661430       2.95473884410469
H         1.55105106115839      -3.63687491762764       1.28399224133767
H         3.47143638348498       2.66904882091628      -1.28317404804552
H         3.64574969296367       0.98428945957071      -1.80541919754735
H         2.31066956824697       1.96803417943455      -2.42391836653764
S         2.16323448440305      -2.92189745241760      -3.38700498901071
O         1.37852262047556      -4.12970067679171      -3.27011141589436
O         1.46316377113904      -1.71646306988157      -2.94290107518279
O         2.94023917049381      -2.76831785300715      -4.58531867508617
C         3.42583921285390      -3.11432738109948      -2.02549679912031
F         4.43721512118891      -3.90981371591312      -2.32541316050822
F         2.82588964320753      -3.60711513175343      -0.92380388852594
F         3.93009403895561      -1.92036012156466      -1.66512664738341
