29
C7H13F6N2P optimized with ForceField in AMS.
N         1.11580870208567       0.38032317345969      -0.37089686255250
N        -1.10784003479776       0.37759825737057      -0.37489170696552
C         0.00579354649517      -0.22195255043635      -0.83865642491732
C         2.49880814915964      -0.00988543567542      -0.63199854400656
C        -2.48961685507101      -0.01532465034698      -0.63888195095246
C         0.69163962156014       1.39860771797553       0.40484383064060
C        -0.68865568914880       1.39699313930161       0.40225096544609
C         3.09670251669660      -0.69134084110352       0.59278977611092
C        -3.09395786303900      -0.68294643524334       0.59043721448687
H         0.01003917661428      -1.08948906855704      -1.48344835466646
H         2.54009300199612      -0.71600906203264      -1.49019112276676
H         3.09862436078019       0.88802129742983      -0.89469468687512
H        -3.08819523801758       0.87994444891853      -0.91336485936831
H        -2.52698068564461      -0.72950790921744      -1.49007881289555
H         1.33695302461679       2.09012363010204       0.93133483757074
H        -1.33745804647771       2.08696578451140       0.92654139401724
H         3.09462715050586       0.00389408426323       1.45919091430902
H         4.14304166600136      -0.99580038898133       0.37885585284472
H         2.50541186809755      -1.59657767391284       0.84845272807123
H        -2.49451322731482      -1.57548574827317       0.86955463089039
H        -4.13402507472928      -1.00379309475343       0.36970274286549
H        -3.10992221439273       0.02640309005416       1.44505158354551
P        -2.43855564765647      -4.22645863859688      -2.39132327369749
F        -1.03422440057565      -3.24065451379922      -2.38004306496709
F        -2.89689535974313      -3.65690208532672      -0.83787755287851
F        -3.32498554080594      -2.93989352893829      -3.10528464949601
F        -3.81735090562688      -5.24914954970082      -2.44312540844570
F        -1.98805735090561      -4.81088655389765      -3.94221853966505
F        -1.52857740926239      -5.47218547079351      -1.63636136688243
