32
C8H18BF4N optimized with ForceField in AMS.
N         0.42470232126205       0.23456132529973       0.03896171569369
C        -0.52693190482200       1.27405162791172      -0.46626489357847
C        -0.08548552847352      -1.13293538357239      -0.28499843964701
C        -1.98301409043442       1.07535665089150      -0.00635349360508
C        -1.52652850209102      -1.38144239497816       0.19658923133082
C         1.72743436622816       0.47185308456146      -0.66581890335412
C        -2.47916798533691      -0.32438918605900      -0.35213941173748
C         0.62109291886234       0.39489209921121       1.50553214220296
C         2.88661564287672      -0.45614833251900      -0.26022884920798
H        -0.53613746038236       1.27655316755092      -1.58150044084611
H        -0.19826825285985       2.29047737554323      -0.15017544479035
H         0.55343218501337      -1.91430805485600       0.18036717106038
H        -0.05853994264668      -1.30261608860623      -1.38623064436418
H        -2.62724840527417       1.82020481724495      -0.52226631286949
H        -2.08955896887550       1.26410717075284       1.08171672215950
H        -1.57112185145353      -1.39593840793812       1.30622828629423
H        -1.85912604405221      -2.38155966470791      -0.15708563699687
H         1.59425149703191       0.36632412485700      -1.76739000282815
H         2.07065125817896       1.51820209149487      -0.49332617024062
H        -3.49089579648434      -0.47568418174958       0.08267695072527
H        -2.55916123546280      -0.43016474988245      -1.45669302393179
H        -0.33413157400072       0.37873597941060       2.06383112851867
H         1.22974218284617      -0.43241984920892       1.92752637580136
H         1.12541411765353       1.35897835083587       1.73818200901490
H         3.78501024454322      -0.17263338527337      -0.84666365258077
H         3.15547335790928      -0.33971537630692       0.80852258171148
H         2.66247690858014      -1.51775110583829      -0.48708148103191
B         5.52175055125218      -2.36344775435487      -3.44344484794604
F         6.86767115794889      -2.81284922923086      -3.38897451611600
F         5.42120746495905      -1.27511549051309      -4.35059886301831
F         5.11451838921762      -1.94281422927508      -2.15144502092098
F         4.68439048438644      -3.42396187439568      -3.88035309710156
