51
C13H28F2N2O4S2 optimized with ForceField in AMS.
N        -0.70031481097376       0.53294797146405      -0.20252443148506
C        -1.67483941511670       0.27787186727065      -1.31302176458493
C        -1.25307196087901       1.61169537002991       0.68117402467438
C         0.55929693214974       1.04075719853044      -0.84854065878279
C        -0.44474595136482      -0.70453407067854       0.61596150372798
C        -3.09300923834529      -0.07661691855483      -0.83532188726028
C        -2.67553908524707       1.32710715417235       1.20675094753898
C        -3.64355793130218       1.02323328202828       0.06671987528105
C         1.75395096200523       1.29163352131740       0.10529371555863
C         0.22391921852034      -1.88284097109355      -0.13482685331077
C         2.95953034699718       1.83533194238580      -0.67163907798919
C         0.44405411256630      -3.06970038512754       0.81261152866690
C         4.16035394213675       2.04491517713960       0.24612797062614
C         1.10282168198160      -4.24249638976573       0.09115839316479
H        -1.31719178893246      -0.52019768840556      -1.99579190877236
H        -1.76909281481083       1.18636615169376      -1.95347284361010
H        -1.28780814228235       2.58323884001483       0.13591588741647
H        -0.60664822479103       1.76825525118598       1.57130893232649
H         0.35201728651794       1.99896300453617      -1.37997150454306
H         0.89381676484664       0.34173968187506      -1.64750327007511
H        -1.38595599959428      -1.09311366892854       1.05040771930835
H         0.17920405006214      -0.45449588949181       1.50189962300151
H        -3.11060667390502      -1.05576558590769      -0.31428909196593
H        -3.75582149195148      -0.17531698481154      -1.72212905398031
H        -3.04106273767063       2.22316425846689       1.75372889750927
H        -2.66907244975609       0.49069167571293       1.93620095477332
H        -3.81155895066671       1.94539316117167      -0.53241973237458
H        -4.62192716549700       0.70313225583807       0.48604166236613
H         2.06354460929439       0.34846094246918       0.59988496678991
H         1.48182891868092       2.03265610453120       0.88411855186494
H         1.20994158452883      -1.58211863428765      -0.54331631495931
H        -0.42061191997401      -2.22621770664964      -0.96889934904164
H         2.69484908302562       2.80650186643064      -1.14424181550863
H         3.24413554314563       1.12017762741116      -1.47428753563486
H        -0.53212482262031      -3.40656950103348       1.22500184660138
H         1.09475758734890      -2.75900364782801       1.65899296843735
H         4.47018659174903       1.08135416755572       0.70395063697245
H         3.91306930745353       2.77184392249967       1.04867975891738
H         5.00882080894222       2.44463915108699      -0.34490596956867
H         2.09926585050073      -3.94486407148892      -0.29938520284799
H         0.46521909901150      -4.58584901882862      -0.75130281694951
H         1.23724782959649      -5.08605795007383       0.80065569378496
N         9.78005607568573       3.01288871282438       0.27851279827262
S         8.26945018832181       3.62848318571201       0.40096266607490
S        10.84365062178975       3.59369158222889      -0.82101837993007
F         7.39694764974323       3.21307913433490      -0.96545125184527
F        11.44928790104807       5.05719234396121      -0.27882294114103
O         7.59373637975887       3.06974636912731       1.62043621785829
O         8.33439414308786       5.12659522653367       0.49905021133412
O        10.15700834522936       3.80859253538609      -2.14058230120927
O        11.97393908615468       2.61952944682861      -0.99060350477798
