49
C15H31NO2 optimized with ADF in AMS.
N         0.19629927846373       0.66703377540607       0.03009131247074
C         0.04845280254901       0.11432139705362      -1.38375315873985
C        -0.99597296108342       1.54204187255600       0.34698924980641
C         1.46768532244762       1.51154226304868       0.03018585840656
C         0.28872671429317      -0.45147186810566       1.05006206426914
C        -1.26629082476694      -0.61018898964951      -1.59382367019502
C        -2.33806585748967       0.85343410947589       0.13389269713734
C        -2.45960041841857       0.29316273689450      -1.28284756076055
C         1.84053297596409       2.14149244127164       1.35793411541047
C         1.44956004947964      -1.40950052560781       0.84925404551059
C         3.14480358358375       2.93065660607333       1.18799801682924
C         1.52282188531828      -2.42110143946105       1.99374978265658
C         3.59820722457844       3.59731843331394       2.48289192044332
C         2.68625678186126      -3.39215881519630       1.80391697700236
H         0.95654751119360      -0.48414545924828      -1.57004430693189
H         0.15637645378720       0.98407222462429      -2.05124738080517
H        -0.90274587582132       2.40972357469170      -0.32525649048852
H        -0.88210395868314       1.88922735401438       1.38310415024766
H         1.31451397359891       2.26710063085783      -0.75483851716421
H         2.25174627303263       0.84425672837583      -0.38560022711989
H        -0.66373705979679      -0.99576021623553       1.01427933022205
H         0.34690852213752       0.03881192534242       2.03423780444545
H        -1.31800518773829      -1.53493831870848      -0.99147258369887
H        -1.28579670015563      -0.93010616176315      -2.64837013104775
H        -3.12238971033225       1.60393705363838       0.32921503344321
H        -2.48812841902347       0.05260804829921       0.87755470930104
H        -2.47208318916150       1.13152833303190      -2.00333016681808
H        -3.41132013353608      -0.25002131665614      -1.40009318042912
H         1.99891687328030       1.37618095862924       2.13761558439953
H         1.05835719877190       2.82893007421636       1.72902707303787
H         2.40227524093455      -0.86586827191295       0.76982870665165
H         1.34869885463035      -1.94411151794610      -0.10805960254803
H         3.00886444546902       3.69260863662065       0.40136838733051
H         3.92833792194886       2.24717883779869       0.81852788723801
H         0.57505647745325      -2.98646338721544       2.06297224234935
H         1.63924853363187      -1.88820672408231       2.95570150744176
H         3.76684545225380       2.85189001663983       3.27679555902046
H         2.84475923437843       4.31390062874535       2.84943029146625
H         4.53964133783467       4.14692996224852       2.33280649304026
H         3.64265526339340      -2.84890162345317       1.75169650415557
H         2.57853302216096      -3.95478732445957       0.86329691804026
H         2.74339150056166      -4.11378077562844       2.63229489720216
C         4.21648664025423       0.05546833740734      -3.69806648627882
C         3.10878894925195       0.38709796788763      -2.68533852958514
O         3.02832536881910      -0.40040096464097      -1.67494051507691
O         2.38754967761213       1.39729271424561      -2.91410890113870
H         4.41768628121065      -1.02533142162843      -3.71078157096192
H         3.95376216564026       0.41328256334407      -4.70376884588065
H         5.14462513572690       0.56405354694641      -3.39072874570672
