42
C12H21F3N2O3S optimized with ForceField in AMS.
N        -1.11612234361017      -1.74625500695046       0.23532102837394
N         1.10669877989156      -1.70429816141044       0.29984031338592
C        -2.50963331068328      -1.47542479693425       0.58477533156958
C         2.46626076053432      -1.37784457254656       0.72905089380692
C        -3.01719162813615      -0.20907931772054      -0.11884456700873
C         3.03022834134089      -0.19970000279884      -0.07770280520031
C        -0.03033581210198      -1.46384926875616       0.98148667257829
C        -0.65142588573799      -2.18950147261683      -0.95011309050118
C         0.72788397607535      -2.16723342958551      -0.90875065437508
C        -2.26287287094769       1.04469129043437       0.34732966081088
C         2.19391117029057       1.07388415237697       0.10830775045892
C        -2.84773063767050       2.30907547378878      -0.27293013015871
C         2.83639547898953       2.26616713735848      -0.59222137282252
H        -3.13796723256807      -2.34197132631059       0.28557906953351
H        -2.61062913241479      -1.35445214531500       1.68583993107368
H         2.47459043733191      -1.11971972662963       1.81121638059642
H         3.11819665109934      -2.26709396684811       0.59180989753788
H        -4.09923103953772      -0.09189063609413       0.10794539094503
H        -2.90790958579726      -0.32583473850398      -1.21942137934149
H         3.06676774132473      -0.47029450163311      -1.15552528432664
H         4.07016918051262      -0.00683591600446       0.25982716207810
H        -0.06785380216468      -1.02612911803357       1.97146928940891
H        -1.26790583134516      -2.46809726028535      -1.79488720463038
H         1.40189904301276      -2.42442618305492      -1.71551924466060
H        -2.31670808338854       1.12896058312349       1.45457202412080
H        -1.19571517814974       0.97183003814545       0.05211680516168
H         1.18077991254579       0.92076026114582      -0.31899449538720
H         2.09056963035074       1.30449253315661       1.19100026467906
H        -3.90392819068261       2.44083581454416       0.04414899069598
H        -2.79902745713144       2.25348557782666      -1.38124849220024
H        -2.26306048163639       3.19120714411957       0.06415029046315
H         2.94152579877922       2.06363387086695      -1.67937315613389
H         3.83682672297577       2.47530120232497      -0.15741608372796
H         2.19589200084475       3.16348014930028      -0.45827592199770
S         6.48588134569111      -0.53762535224951       2.69111121671960
O         6.16281508650197      -1.25290918559282       1.37136932324655
O         5.39994779644564       0.54518024567760       2.77833109942651
O         7.75178067025114       0.26280041493216       2.35113494870799
C         6.62178919886091      -1.62310705398791       4.14022438308970
F         7.57467056202106      -2.59445788485567       3.90105223975773
F         5.40238267697171      -2.22606861851228       4.38126877193633
F         6.99221232076079      -0.87864048679166       5.24346600330958
