40
C10H15F6N3O4S2 optimized with DFTB in AMS.
H        -0.70750361099536       0.77814140394084      -4.66636526379895
H        -1.81238026289841       0.94545032242612      -3.27686465854991
H        -1.46631402883586      -0.66739733710308      -3.95412277623971
C        -1.05251018072062       0.31835407920752      -3.73957935567915
H         2.97098435422825      -0.83395055088452      -1.76409917588022
H         1.32621385661386      -1.11681459071384      -3.98387148547928
H        -0.54955808759585       1.40146412958141      -1.16664630661634
N         0.06894904774262       0.17870325948194      -2.82711910561676
C         0.17795831999162       0.75446626545025      -1.62605642670786
N         1.34934626202029       0.39750444540737      -1.11067734911735
C         1.99963643436146      -0.42544068494461      -1.98441169403252
C         1.19520851081494      -0.56361017491252      -3.07060184562509
C         1.83588456208958       0.76366799371501       0.21680531275239
H         2.91949634079451       0.86673929452995       0.14924079503409
H         1.39566888356934       1.72745894931572       0.48493353084714
C         1.45036849860593      -0.32167813164944       1.22540751292960
H         1.85580714486444      -1.27877139563660       0.88660226356621
H         0.35875865705612      -0.40655776358493       1.26494620914442
C         2.01454384235660       0.01619657817745       2.60864741873364
H         3.10326855017540       0.09655687962962       2.53705942592835
H         1.62151512319091       0.98325177116344       2.93998167356346
C         1.65537015181154      -1.06504494418741       3.62435436132524
H         2.06007145176967      -2.02799184876863       3.31152771769350
H         0.57268085509091      -1.15719222371748       3.72633207687545
H         2.07723426932062      -0.81040904359931       4.59618398667905
N         5.11789368389006      -0.59395831459793       1.55167902824333
S         6.25632380869219       0.49320462537766       1.92266917753153
S         4.95768780032724      -0.95288165378233       0.00971257807304
C         5.58992508175648       2.17642397869804       1.41298354420286
C         6.46150109513228      -1.88022226403057      -0.64286640747870
O         6.29705760519862       0.56506514346715       3.35602968629132
O         7.48535280414612       0.34243711868826       1.18890701848982
O         4.82075501511610       0.19184481621424      -0.88495343420749
O         3.88727964829335      -1.93244687704809      -0.07641022148481
F         5.97239581187456       3.08842560780396       2.29087938502772
F         4.24983357835369       2.15210800470009       1.40354221398485
F         6.00701771246642       2.53564771024337       0.21498258072682
F         6.02905371665724      -2.76043817782743      -1.53941947700197
F         7.06881740816993      -2.52917313609577       0.33125335735405
F         7.30669074550321      -1.06226837823494      -1.23333342368179
