45
C13H18F6N2O4S2 optimized with ForceField in AMS.
N         2.37098988952583       0.03462017261496      -0.54075562641903
C        -1.44509321341429       0.05542502233995      -0.69108579334932
C        -0.04072838997068       0.02513105658645      -0.07892971003466
C        -2.51967502312221      -0.00829753067263       0.40105391132339
C         1.04210461796671       0.08265978733295      -1.16132116544013
C        -3.92539949674613       0.00958790757789      -0.20950547480342
C        -4.99853125563202      -0.05728457479747       0.87338083806417
C         2.95860276580993      -1.17547039582969      -0.29358936887554
C         2.98856931242663       1.19588411850402      -0.16356276425976
C         4.19303151306766      -1.24440034822551       0.35432007597670
C         4.22688525623082       1.16269525993965       0.48300112151918
C         4.82964271517193      -0.06706754087751       0.74463184140401
H        -1.56596894713648      -0.81151743786723      -1.37758418543261
H        -1.57105012963862       0.99200195114099      -1.27790523151227
H         0.08406887001096       0.89263682474864       0.60587267585205
H         0.08513006023939      -0.90906883295603       0.51159136839159
H        -2.38803140905129      -0.94075999923741       0.99356448758235
H        -2.40327862257949       0.86266650878616       1.08349593630486
H         0.92989192474629       1.01461302679465      -1.75939141479566
H         0.91722198518644      -0.76996194222124      -1.86617394022546
H        -4.06615210888526       0.94199586440428      -0.79858711799785
H        -4.04855973647476      -0.85984579833228      -0.89154992927462
H        -4.91502891496584       0.81634105002552       1.55447637816198
H        -6.00358487098998      -0.04472395832509       0.40143694089964
H        -4.89487402351027      -0.99326629515003       1.46275081191557
H         2.46588181884056      -2.09613149610492      -0.58324860018434
H         2.51793035928991       2.15421220407585      -0.34876863510323
H         4.64210107946861      -2.20522741251825       0.56161586927883
H         4.70848540362688       2.08281485672769       0.78807754789837
H         5.78360609393592      -0.10782827518205       1.25476161648552
N         9.36414363693715      -6.10727725636134      -0.56990116581412
S         8.96307760241479      -4.54200524012809      -0.29717387795812
S         9.13295004453873      -6.84524590128394      -2.01504116204931
C         7.31319647643798      -4.46615098392965       0.36545998915920
C        10.66844520887442      -6.85374355344656      -2.91609750039962
O         9.91420250449895      -3.95815238816818       0.70858958901849
O         9.02778218399767      -3.74567422574615      -1.57106807026957
O         8.08239515685332      -6.13117924216902      -2.81978371711216
O         8.70417880654620      -8.26543505550515      -1.77779713454489
F         6.99073002735845      -3.15056141463820       0.63294123895383
F         7.24973172916994      -5.19973881030407       1.53492272457214
F         6.41570928869810      -4.98357612306395      -0.54941806659253
F        10.48063766628583      -7.46098121167615      -4.14316303313506
F        11.62042984686702      -7.55375497115982      -2.19931488510014
F        11.10296293599428      -5.55603235642204      -3.10844596847845
