43
C13H24F3NO2 optimized with DFTB in AMS.
N        -0.78987964948492      -0.32282030454109      -0.07426120301127
C        -1.06880554274331      -1.23367740021042      -1.25552028601773
C        -1.95126230520249      -0.50164391149090       0.87936047350405
C         0.48072145966527      -0.74064068052131       0.61521892097049
C        -2.52683280679567      -1.64371459445926      -1.14019459287054
C        -2.74224305363256      -1.69693097042347       0.36709840127312
C        -0.72573140076972       1.09244922971991      -0.55834393806280
C         1.72975206245215      -0.61431639138699      -0.25250263283884
C        -0.42542633690468       2.11866701047011       0.53446376411642
C         2.90934831107427      -1.28118640465803       0.46740992239207
C        -0.58317249348573       3.53018799630686      -0.02976380066018
C         4.19583675856242      -1.13623908439228      -0.34086114651316
H        -0.83464332605235      -0.70922091075950      -2.18139582122420
H        -0.42566114846770      -2.11245863212260      -1.15661003229093
H        -1.57019299220592      -0.64016450751547       1.89089832100804
H        -2.56151767917217       0.40353817518919       0.85057797076684
H         0.34238476769817      -1.78637192055687       0.89797309475024
H         0.57949827646344      -0.13797013885175       1.52110442539226
H        -3.18957847015146      -0.91270729467664      -1.61213499279072
H        -2.67233481186929      -2.62452918986027      -1.59389176714432
H        -2.33170911585961      -2.63062931423554       0.75857640587689
H        -3.79284245576437      -1.61773796740789       0.64761922959871
H         0.04449877484668       1.14083954604066      -1.33123417816145
H        -1.69208565317087       1.30811700122893      -1.02294901040006
H         1.57101960370192      -1.11994580236994      -1.20730754897613
H         1.96089678145610       0.43770747096228      -0.44830260057271
H        -1.10531426973433       1.98839368885456       1.38040710387483
H         0.59702782224413       1.99231750721108       0.89877362617229
H         3.04033640304832      -0.82790224632662       1.45605461563166
H         2.68038616235427      -2.34245041801526       0.60181632553016
H         0.09409101722522       3.68372524576321      -0.87036465154755
H        -1.60578454287526       3.69589461872560      -0.37020944790748
H        -0.35033562126284       4.26203620825471       0.74278548130315
H         5.01673743742717      -1.62636676146399       0.18218686650327
H         4.08260590709747      -1.60029010475663      -1.32111607713057
H         4.45008662377934      -0.08385759439592      -0.48022062868571
C        -0.02445980404872      -4.31559413627609      -0.18949967840644
O         0.87904520600572      -3.48914862084602      -0.36951001709997
O        -1.23804127642068      -4.20760680080683      -0.35043520098137
C         0.47295224860631      -5.72145460249594       0.39347189478242
F         0.53843627358223      -5.66544834280046       1.74264125165911
F         1.69872286023372      -6.05541663820999      -0.03875730385147
F        -0.34514725364966      -6.73772756759312       0.08637297363959
