31
C9H20ClN optimized with ForceField in AMS.
N         0.26973188977755      -0.14130204860392      -0.18330487856921
C        -0.58812964128247       0.65848858676777      -1.11642761554082
C        -0.50077230719703      -1.35125340093385       0.25446578390822
C        -1.94818819969667       1.06456417339294      -0.52521141570561
C        -1.88274476948617      -1.02938099138855       0.86317886556352
C         0.68402069446484       0.65432866307452       1.02550258688228
C         1.46298373989664      -0.58964232743757      -0.98137140169139
C        -2.72428028701287      -0.16997142928865      -0.07724159682488
C         1.55437002065124       1.89267802864097       0.74605751322128
C         2.53482815224628      -1.37646024956365      -0.20443541689631
H        -0.80388274077508       0.06710326617527      -2.03766362071311
H        -0.06231346247913       1.56795236615125      -1.47282321283781
H         0.06405929166399      -1.92782060938608       1.01841778003425
H        -0.66790806590683      -2.03936555423508      -0.60624672288895
H        -2.53664885954686       1.59131313474679      -1.30716594350062
H        -1.82609786330773       1.77672950807561       0.31668358159997
H        -1.77631761252808      -0.52499331860295       1.84604573702409
H        -2.42254488319610      -1.98236856058901       1.05218390398756
H        -0.19480754656425       1.01348170025749       1.59477827364367
H         1.23089395840600       0.00924569608424       1.74699679030401
H         1.13921082996204      -1.23591477925992      -1.82953127004973
H         1.96406542350236       0.27937025531460      -1.46241573855656
H        -3.65525302593026       0.14634861910505       0.44131635857582
H        -3.01438667934124      -0.76974098888894      -0.96783964231818
H         1.80372751715684       2.37599650939601       1.71433528671048
H         2.51350915026189       1.62842244664678       0.25876479647621
H         1.01277364105706       2.64422892098213       0.13925283477457
H         3.33857298745899      -1.67353684097549      -0.91104460245801
H         3.01007937911536      -0.75947880108649       0.58406030328737
H         2.12446310638181      -2.30669190773109       0.23542066794144
Cl       -0.81972453155209       4.49872720985985      -1.58574727768355
