47
C15H29ClN2 optimized with ForceField in AMS.
N         3.08362134564174       0.89589664263551      -0.01540678068410
N         2.90807222129390      -1.31428323911159       0.18307063253242
C         1.50459724388370       2.77568234625522      -0.28718099333141
C         2.86597562361025       2.31600257264262       0.25755103012967
C         0.98947365318824      -2.62125890755763       1.04251472470118
C         2.48867874766317      -2.61746067565678       0.70145390139609
C         0.33547046495077       2.12864109308403       0.47081869278206
C         0.11803483463100      -2.29843626384043      -0.18136869837014
C        -1.01586496098357       2.57581720976079      -0.09629308822641
C        -1.36874834646579      -2.25754764189469       0.18905970673000
C         2.82645298357973      -0.12920926607162       0.82094950313124
C         3.34896677616696       0.34082423475114      -1.21549316884049
C         3.24838271009402      -1.02929620226578      -1.09076453452708
C        -2.17088240420074       1.93400441632406       0.68220899296388
C        -2.21545347034938      -1.78629345325661      -0.99981012141929
C        -3.51792169809288       2.25873851050172       0.04415218327966
C        -3.69349698648920      -1.70656089747391      -0.62914774787980
H         1.43710537058182       3.88104037862239      -0.18496417999136
H         1.43645804683653       2.52769909778384      -1.36933416130277
H         0.79556331942421      -1.87870565476469       1.84686865394146
H         0.71466594974677      -3.62502630058624       1.43434380010209
H         3.67415061062948       2.90867841583188      -0.22271884848573
H         2.91751261425338       2.50728839837451       1.35200003550826
H         3.07461112445696      -2.85241107117720       1.61597128206096
H         2.69741212019160      -3.41322017703291      -0.04743970608647
H         0.39778125320927       2.40360980111129       1.54659449493558
H         0.40177932370967       1.02375878684107       0.38429679500817
H         0.28421308935195      -3.06677421006453      -0.96781319531347
H         0.40910112332251      -1.30833943561307      -0.59274115808360
H        -1.10012948026336       3.68311833915840      -0.03243626755612
H        -1.07796774062892       2.27564561750688      -1.16556062376686
H        -1.51730343010356      -1.56093769033555       1.04277566867060
H        -1.69921554000887      -3.27187149947835       0.50343410023866
H         2.49451951851727      -0.00982904678530       1.84481707300555
H         3.53234237530431       0.89253651792877      -2.12841719145104
H         3.33624610524600      -1.75488969400439      -1.88906248936674
H        -2.04404915165431       0.83128428930649       0.70264988272608
H        -2.16600271664191       2.30471707649733       1.73004258730360
H        -2.09231392845151      -2.49123965889883      -1.85039125184703
H        -1.87555290115166      -0.77906728685876      -1.32708854217643
H        -3.68395164876106       3.35695040423169       0.03142265313158
H        -3.55628229107095       1.86750315441377      -0.99498002625218
H        -4.33143121205453       1.78168259687780       0.63070410350380
H        -4.27700459366186      -1.34685117082566      -1.50275570559040
H        -3.84367428961182      -0.99725921215832       0.21231267672203
H        -4.07172401087180      -2.70890191899789      -0.33590895792584
Cl       -0.93367495406751      -6.02573752643044      -0.80239486782982
