43
C13H27NO2 optimized with ForceField in AMS.
N         1.99466447430169       0.43189026013228       0.06126477989858
C         2.23471053438251      -0.87494890524370       0.72761003205495
C         3.10748990299607       0.58655986555914      -0.92473192618996
C         0.68439386597995       0.44977859351833      -0.65879409802221
C         3.69721160417482      -1.21875246203777       0.53698101060951
C         4.02608652172057      -0.62237558407285      -0.80600285662534
C         2.06309228621814       1.53274240934470       1.05755685107394
C        -0.55447763709693       0.27272717964672       0.24924407513142
C        -1.82038055641889       0.08089667240605      -0.59631051262575
C        -3.06217534298051      -0.08369468555974       0.28751020627549
C        -4.32499747459706      -0.24134221881750      -0.56747630326665
C        -5.56401663463607      -0.42207045736257       0.30451402991736
H         1.63801946504473      -1.68932133496748       0.25451291414430
H         1.97618526354574      -0.86607992899883       1.81097213968007
H         3.71063491422312       1.50627871386209      -0.74529497272749
H         2.75183216858514       0.66525861703545      -1.97805193735086
H         0.67383458474088      -0.35777364256207      -1.42781916229607
H         0.57130545389022       1.41137058537882      -1.21058779177237
H         3.87098051355181      -2.31662254924840       0.55454208375157
H         4.30752334054373      -0.72865821702136       1.32751192933356
H         5.09856072900316      -0.33834511829687      -0.87562230926104
H         3.78459031245497      -1.35659681944719      -1.60708129455965
H         1.33134498701053       1.38852511326762       1.88072857932937
H         3.06942327125269       1.57866028754087       1.53200839102666
H         1.86141574104010       2.51548664215881       0.57622971633637
H        -0.42943885028606      -0.60791122148100       0.91392521103014
H        -0.68988908493696       1.17747143271650       0.87914385948269
H        -1.70456530525083      -0.82392185830425      -1.23304229955118
H        -1.95441997535216       0.96410273164479      -1.25941555035852
H        -3.17102587324302       0.80905153824030       0.94204692415959
H        -2.93786938924181      -0.98220700698504       0.93155921023147
H        -4.46181293167744       0.66058519679967      -1.20308917770981
H        -4.22115954711167      -1.12694446731037      -1.23165322424153
H        -5.70226840291505       0.45938150524068       0.96618537665137
H        -6.46112406727409      -0.52504977046633      -0.34179604810668
H        -5.46739627802585      -1.33724218914995       0.92651839990142
C         8.19067285803428       1.69890810997796      -1.37217904392632
C         7.39808944169068       2.77728413793981      -0.70312668436684
O         7.97023203837227       3.65786208045910      -0.08180796509481
O         6.18014206252362       2.78276035658746      -0.77764354557238
H         8.83658003271426       2.14484946566248      -2.15725736135703
H         8.82957411632745       1.18516016515976      -0.62365192027364
H         7.51702279432130       0.95074448725387      -1.84204929116370
