31
C9H20ClN optimized with DFTB in AMS.
N        -0.03177796581646       0.21906666732936       0.17890170353625
C        -0.92332405705021       1.27234397262809      -0.42198962452541
C        -0.50618500584963      -1.14026138787834      -0.22479777185757
C         1.34623119813851       0.47139091031696      -0.38157426473453
C        -2.39326879646650       1.07094150612336      -0.08810359561278
C        -1.97037183059594      -1.38062828958114       0.12854076722311
C        -2.86598713371596      -0.31951554167854      -0.50909270645132
C        -0.00165871965909       0.36359602869760       1.66126981904409
C         2.44263536465471      -0.44923030842088       0.14524627937426
C         3.77293482302618      -0.04256508892813      -0.49015864583282
H        -0.77816381266313       1.22825205567351      -1.50465914549411
H        -0.55986732658317       2.23536410323742      -0.04350277734036
H         0.12708122256399      -1.87734376393396       0.27294721254521
H        -0.36405246511784      -1.22238071999276      -1.30630251486947
H         1.58203586462964       1.51247554869735      -0.12817365737768
H         1.26707867278352       0.37375541229810      -1.46766209421934
H        -2.95693405433563       1.83504342384324      -0.62911579244955
H        -2.57381097321708       1.22218749666437       0.97897543925076
H        -2.10365264441869      -1.38315064639376       1.21362909155753
H        -2.24098430853654      -2.37265360286932      -0.24266783461006
H        -3.90085329276813      -0.47432242411213      -0.19523645459827
H        -2.82243023027018      -0.41085317835610      -1.59935002986658
H         0.57666008651171      -0.45065142325053       2.09064559220639
H         0.45507429254347       1.33123425010148       1.88737926531284
H        -1.01432272098539       0.33363663564813       2.05301782778379
H         2.52990251032307      -0.35997338571473       1.23041840191993
H         2.22937810036636      -1.49485984347207      -0.09765812359861
H         3.72615804009909      -0.14003645275678      -1.57529392144647
H         4.00971556533066       0.99166650467595      -0.24159380555915
H         4.57009619678304      -0.68374906709168      -0.11568576556727
Cl        1.04668372169559       3.33865218109595       1.07879589565719
