36
C10H17F3N2O3S optimized with ForceField in AMS.
N         1.02385106425490       0.34712240828525       0.46195250636091
N        -1.00363969427300       0.34354203102613      -0.45055361651969
C         2.27817046487432      -0.12277264988468       1.04642086142372
C        -2.24980549417050      -0.13057726264362      -1.04817282043187
C         0.01339205199444      -0.41507418264011       0.00139609412693
C         3.45063102108697       0.09245770272968       0.08309754207481
C        -3.43205378694896       0.07376187691955      -0.09566792189859
C         0.63394247680086       1.62754690216590       0.29595900089855
C        -0.62547707943782       1.62536991152761      -0.26948948551370
C         3.29890620002999      -0.73252730721801      -1.19428432522620
C        -3.28069517548361      -0.73988083664286       1.18867935639020
H         2.20062431879121      -1.20304060910268       1.30039222055333
H         2.47041730362147       0.42823448580125       1.99243010972670
H        -2.16426015569936      -1.20942405496607      -1.30551816603820
H        -2.43699771737376       0.42360666866435      -1.99339422939179
H         0.01871886079804      -1.49822622769525      -0.00624758012807
H         3.53337061705246       1.16948953867755      -0.17837708530425
H         4.39070172556692      -0.20977246828311       0.59311383522480
H        -3.53375248101011       1.15095693218912       0.15704269986880
H        -4.36008628007680      -0.24830773711189      -0.61307465701489
H         1.21937207579938       2.49634113059331       0.56794112430689
H        -1.21793713923427       2.49192475796804      -0.53345463709475
H         2.42934266649807      -0.37512037270460      -1.78549877067224
H         3.15853128237727      -1.80688381867914      -0.94852335376429
H         4.21313367804099      -0.62776775719277      -1.81526979131022
H        -2.42318121767314      -0.36459067778862       1.78635872621855
H        -3.12078346073795      -1.81351586531882       0.95186258748064
H        -4.20308562929575      -0.64500665123928       1.79916132425219
S        -6.34393997737736       3.01635160465438      -0.60547406087395
O        -5.15171772437554       3.04340882761413      -1.57341350107199
O        -6.93376997481041       4.42812535551815      -0.74001058153876
O        -5.67376885315327       3.04983285320539       0.77601544674801
C        -7.52416909458397       1.66080059600531      -0.86321342350024
F        -6.87982508461677       0.44915391419728      -0.70981723850515
F        -8.04967434705151       1.74243539896451      -2.13829728312220
F        -8.54585694390341       1.75606843860461       0.06174969556599
