33
C7H16F2N2O4S2 optimized with DFTB in AMS.
N         0.08782043796143      -0.00295177995414       0.24390187874232
C        -0.41379979286046      -1.36358624933002      -0.13995093423257
C        -0.98077901443048       0.52635519985187       1.15604190076865
C        -1.92970291572285      -1.22467413517338      -0.24988029328238
C        -2.29809723998574       0.01223229718155       0.58338201475399
C         1.39916547576123      -0.04780238931269       0.97493268919849
C         0.19380644191554       0.86096507314666      -0.95906911118306
C         2.50619300712260      -0.76198080778446       0.21843491285717
H        -0.14218694291768      -2.05272475882312       0.65872986045015
H         0.05932109545563      -1.67735244916818      -1.07011807110763
H        -0.91129890884429       1.61356868060655       1.20079239372327
H        -0.80339659144410       0.10700838931976       2.14800366971254
H        -2.40517016111686      -2.12355803905056       0.14570088599204
H        -2.23797460218644      -1.09820331682347      -1.28985494300624
H        -2.78117211521533       0.77223316213388      -0.03431260342588
H        -2.97043677476228      -0.24862715281145       1.40258241294788
H         1.67667621995543       0.98869734958179       1.18570273392435
H         1.21100471208927      -0.56200409799242       1.92000400890849
H         0.91049209489618       0.42524424051732      -1.65174340286358
H        -0.78062556401287       0.92885987548302      -1.43741991617097
H         0.52691039628045       1.85234125775712      -0.65636774673407
H         3.37446914345440      -0.79993345963648       0.87560104928086
H         2.22246438974724      -1.78533338202813      -0.01874761796615
H         2.78180796424380      -0.23862600798140      -0.69638436821468
N         0.18724169725462      -2.00648002717265       3.19899851674368
S         1.36044170634725      -3.05948675338134       2.97496562856020
S        -1.31044548917507      -2.54484208376007       3.14260908120670
F         1.16300347614242      -3.50840589381787       1.40387495211891
F        -1.48863424182712      -3.44970635206453       4.45058037607231
O         2.57797734715251      -2.31144389579775       2.93819270550140
O         1.29541424486414      -4.27684082949705       3.70271833660751
O        -1.62126970479438      -3.40936546115277       2.04347791496371
O        -2.15770799914822      -1.40858566686559       3.35368332675262
