35
C11H21ClN2 optimized with DFTB in AMS.
N        -0.98090928662001      -1.60966651519359       0.45828079658709
N         1.14287197683849      -1.75059601176221       0.16908436505635
C        -2.26101761125158      -1.19340948417617       1.02704297241097
C         2.56845854070813      -1.50736704490648       0.34908463363167
C        -2.90643401234043      -0.11196451363336       0.15788220605873
C         2.97178673423545      -0.17824569690542      -0.29983706540394
C         0.19615180250945      -1.29711028691436       0.98850055230213
C        -0.78840501022651      -2.27495683314469      -0.72334622626353
C         0.55549214345800      -2.36159249574651      -0.90887481204657
C        -2.02647490892204       1.13752724738152       0.04935278722386
C         2.29498059654573       1.02776758494344       0.36010266217450
C        -2.73887084355192       2.24947816685744      -0.71603890486965
C         2.78873202273655       2.33823518578929      -0.24765104226022
H        -2.90819780298647      -2.07190713868297       1.09610170398907
H        -2.05259520908890      -0.80219216845105       2.02778968713442
H         2.77096001075803      -1.48872362697131       1.42314706052256
H         3.11455488310575      -2.33749733054239      -0.10609324908482
H        -3.86153904382513       0.14916030846366       0.62285033353671
H        -3.11529445833562      -0.51541514125773      -0.83899111774847
H         2.72400007568510      -0.21050871240918      -1.36565840640206
H         4.05828264053114      -0.08788493538661      -0.20838270953335
H         0.30417156128316      -0.70624846804484       1.90685934710130
H        -1.60597821391071      -2.63248186501295      -1.32449022869437
H         1.13233335557164      -2.80749767416209      -1.70024474361347
H        -1.76799460168102       1.48524576834202       1.05358153837483
H        -1.09502407372638       0.88030745713541      -0.46662931905394
H         1.21164505622555       0.95709875212839       0.22703553424623
H         2.49989272989595       1.02128690146531       1.43464605473113
H        -3.65840955099040       2.53681181742482      -0.20480045168998
H        -2.99022525757854       1.92393902061608      -1.72722398730623
H        -2.09193358393118       3.12400674630459      -0.78294301197456
H         2.57012131192273       2.37244006089781      -1.31604373314665
H         3.86527146498044       2.44554861143722      -0.10851882938896
H         2.28973967531976       3.17658091528515       0.23710542754390
Cl       -0.37954690724419       0.71687288193174       3.12588611265532
