44
C12H26BF4N optimized with DFTB in AMS.
N        -0.42733847347650       0.44273133001453      -0.17535713014064
C        -0.94654086597759      -0.30253913319528      -1.36693539202299
C        -1.57525492877833       0.77334172869106       0.72990857536083
C         0.61841256639357      -0.34285915194430       0.58721971941419
C         0.17031025650698       1.73246480409848      -0.70488723617115
C        -1.71697266882752      -1.55985796134888      -0.98631918835918
C        -2.42562262941843      -0.43369312777040       1.11710425978600
C        -2.91498523362092      -1.19341585027251      -0.11361112029388
C         1.58312182968964      -1.16048391443697      -0.26879903515014
C         0.46354605256096       2.80385992467040       0.34340413669145
C         2.72937527907428      -1.66526806142520       0.61827994792276
C         1.19729843331950       3.96291784738179      -0.33235693229247
C         3.76330729105544      -2.41807647880526      -0.21535241082609
H        -0.09569063882986      -0.53223449846313      -2.00902981991101
H        -1.61230056250628       0.37966418633759      -1.90308020059073
H        -2.19285762054311       1.50703338473394       0.20425443307856
H        -1.16088402371943       1.23412790011658       1.62797393703987
H         0.09482569347062      -1.00284607952235       1.28167016384095
H         1.18589319078217       0.38833884618538       1.16458094709596
H        -0.54030106463401       2.12902943833445      -1.43516100847371
H         1.09267207586743       1.45708338368631      -1.21979713277093
H        -1.07344874355409      -2.26794964351412      -0.45956502424658
H        -2.05548777150746      -2.03580084036693      -1.91000769753181
H        -3.27814446370840      -0.05850725560576       1.68946914210786
H        -1.86267960556188      -1.10759950464676       1.76818066537863
H        -3.61093958560746      -0.56942111167418      -0.68359408614533
H        -3.44305382452706      -2.09781647547955       0.19710388223421
H         2.00142110530726      -0.54527607853964      -1.06607753722876
H         1.07192726438411      -2.01679892929220      -0.71878752606120
H        -0.46579020047963       3.17107955978611       0.79134527264367
H         1.09832031445688       2.40248719502186       1.13549659585710
H         2.32769180849917      -2.31791485246803       1.40251154997970
H         3.21181721755113      -0.80845368892045       1.09615093779399
H         1.35635753793712       4.76153105136036       0.39173408311402
H         2.16644846741886       3.63029173802131      -0.70248294288852
H         0.61349780638596       4.35643357945267      -1.16574519860165
H         4.21636593222747      -1.74103758595388      -0.93918486310735
H         3.30192418487233      -3.25201192970401      -0.74764332272231
H         4.54683786575680      -2.80841737212188       0.43417751743200
B         3.68312044501619       1.42929983268028      -0.99291183800418
F         2.77992037489275       1.08889442874629      -2.04541572182554
F         2.92116919901499       1.34846382180825       0.21975519110520
F         4.11922360895465       2.72695235345439      -1.16240511261904
F         4.70665588958170       0.50685497778966      -0.94649996219171
