41
C11H24BF4N optimized with ADF in AMS.
N        -0.13105813914108      -0.26693238704301      -0.31673273275442
C         0.27144733579103      -1.15606657856193      -1.48561347300274
C        -0.71758211007379      -1.26588454252174       0.66932189450364
C         1.07726092592147       0.41073718513126       0.29978905744266
C        -0.81686445838191      -2.22534363724665      -1.58349631354650
C        -1.46924398632846      -2.28986755065926      -0.17879079895896
C        -1.18465994105789       0.71582195825186      -0.78030266239341
C         1.80154762174779       1.35822533899143      -0.63681976694788
C        -1.61551455405234       1.73006149535074       0.26281030284032
C         3.04995972023739       1.96549916859593       0.02324670300622
C         4.15503779693053       0.95224107014123       0.38816880465936
C         4.14661944050519       0.49320590960369       1.84697617673121
H         0.37812651442864      -0.53096207475286      -2.38198785391093
H         1.23961183436985      -1.59985229066132      -1.21024341726561
H         0.14276373006744      -1.72768283918135       1.17659067264411
H        -1.33275939019382      -0.72446429085003       1.39942428800502
H         0.72401791007303       0.92345163024164       1.20797174762682
H         1.73323522361008      -0.41351726917817       0.60757164867268
H        -1.56140468906894      -1.98216826959366      -2.35699428636449
H        -0.34538765878427      -3.18267132352893      -1.84472241879614
H        -1.33881753647012      -3.28311155784505       0.27300288780193
H        -2.54739141420416      -2.07199940781656      -0.22998095031655
H        -2.03728345077923       0.10635943665024      -1.11448559367952
H        -0.76906969876008       1.22284351640015      -1.66338501203089
H         1.13719385422449       2.17811022499518      -0.96433716691776
H         2.12141526773524       0.80740032692691      -1.53842607079495
H        -1.98287026626963       1.25773965936681       1.18499131449669
H        -0.80581444403493       2.42679780849992       0.52090943656324
H        -2.44415844936361       2.32234870577602      -0.15357455370157
H         2.74938904794599       2.53002363395632       0.92619802071296
H         3.44986685345984       2.71143233627061      -0.68393135182307
H         4.07805951028615       0.06610967808693      -0.26611112655698
H         5.13459945024810       1.41357725451699       0.17266371977136
H         4.98449542220562      -0.19473092978972       2.03776102504593
H         4.24998437303070       1.35470642485724       2.52832743539670
H         3.23308947167374      -0.05841888900541       2.11098602693130
B         2.46825185649362      -3.03519544810960       0.72846891082650
F         1.30930055464905      -3.66094103590976       0.17018094873106
F         2.99591453463677      -2.12998383433364      -0.26468634403183
F         3.42599210346857      -3.96363021395304       1.11560657300366
F         2.03890097132397      -2.23558120606943       1.84969701358085
