46
C12H19F6N3O4S2 optimized with DFTB in AMS.
N         2.79529641665985      -1.25985303172174      -0.73761804548555
N         4.47114724034252       0.09010369964202      -0.72630411687828
C         0.61464068969021      -1.41191899065341       0.40295290846443
C         0.23543056965045       0.07058515639127       0.43992571192499
C         1.43275994565224      -1.77304655098123      -0.84380187841076
C        -0.52768275078459       0.42039498840932       1.72121597450937
C        -0.79220837610056       1.92662366447557       1.80598515868353
C         3.18348961596779      -0.02062045306713      -1.04037481846375
C         3.85186272426940      -1.93752447585357      -0.19186099899533
C        -1.42882798198892       2.29822541648610       3.14334401510455
C         4.90853823929812      -1.08192215016120      -0.18309913095406
C         5.23351602229846       1.32410684750620      -0.80617635620424
H         1.19012812110974      -1.67394303253192       1.29461392079957
H        -0.29035714590506      -2.02634611036808       0.39078152159234
H        -0.37395755789542       0.31363839124117      -0.43808788163422
H         1.14500446827916       0.67589097537370       0.39671710129064
H         0.97868756059864      -1.34955129776898      -1.74431784145761
H         1.50119451014143      -2.85794836656270      -0.95531782239584
H        -1.47464973370522      -0.12974486508497       1.74934481307254
H         0.06587594157309       0.11272940132515       2.58634427987488
H         0.15588775992511       2.46312057492876       1.70102497206344
H        -1.44772680449478       2.23248740236804       0.98266029983021
H         2.57256112861848       0.75085975956727      -1.47420349600526
H         3.76222780747645      -2.95202262807218       0.15376837886775
H         5.91322537342352      -1.19566525890253       0.18386375893089
H        -0.75351513539861       2.04590753374739       3.96137392847231
H        -1.62951882496702       3.36932764216726       3.17606015591578
H        -2.36877616248278       1.76240772355474       3.28646384585339
H         6.25524128322452       1.12409762300670      -0.49556799769059
H         5.21078348559655       1.70473916705680      -1.82712375946400
H         4.77920770893467       2.04597505017101      -0.12753687910685
N         4.41508703936679       1.82782724950067       3.64521125370512
S         3.12061350656895       1.24125903232084       2.92802706610165
S         5.84085435115796       1.52202022075580       2.97939652988122
C         3.05650777623867      -0.57611143744392       3.43061883225884
C         6.24684508056782       3.10407190929427       2.05819485828199
O         1.96514173574496       1.81578210135721       3.56172012631977
O         3.12959877222278       1.20701867833721       1.47081881943278
O         5.85715081044208       0.49947122293971       1.94633506908713
O         6.83209886659717       1.45436630035495       4.01439244333551
F         1.82180749718526      -0.90505732463241       3.79047249139218
F         3.87308109616535      -0.82254768009177       4.43562911991540
F         3.39747231161033      -1.35793563026164       2.40399396539457
F         6.76566425106080       4.00937045262551       2.86317893403471
F         5.15411708644980       3.60878915968199       1.49254205665120
F         7.12099501161384       2.84031442327275       1.08731720900370
