55
C15H20F18NP optimized with ADF in AMS.
C         2.56371687795215       1.63654732314298       0.56971910496257
C         1.36517982802797       2.29833386626204      -0.10512520595908
H         0.97269343884747      -0.11078772042080      -1.19023673932855
H         0.24120754672097      -0.81338508390704       0.28561224199163
H         2.99239669735510      -0.46748620133757       0.01014327374479
H         2.22840060083908      -0.28742189993932       1.59277685183420
H         2.70799065962510       2.01078323957117       1.59363063477380
H         3.47835573280264       1.87759121052298       0.01110484381438
H         1.09350026633841       3.29221372445682       0.26506145172597
H         1.49031598911345       2.37231972173889      -1.19250270881693
H        -1.07911741946801       0.73590522432298       1.70610470279784
C        -0.27665250126297       1.46178343604101       1.53289550670892
H         0.55213865506331       1.27311877907514       2.22354541963348
H        -0.65545977493457       2.48216734199810       1.66773466678640
C        -0.92485223296132       1.59832581351512      -0.84337155702555
H        -1.32426910477872       2.57798636134275      -0.55843485921325
H        -0.45602616751319       1.72799084161427      -1.82813529928125
H        -2.00333300174587      -0.10033278095795       0.02876204599320
H        -3.02727798165705      -1.99723739259827      -3.08798190316134
C        -1.92701957246514      -0.38576766115438      -2.11909881650243
H        -1.93559544808526       0.25537597988485      -3.01809109146100
H        -0.96812089286814      -0.93338079086097      -2.13336814652714
C        -3.08384529553607      -1.37699043844928      -2.18141020036055
H        -4.04922093173994      -0.84698248324618      -2.19566696326925
N         0.21079401510503       1.33137574670471       0.12404381162413
C         0.87827990349307      -0.00729347650415      -0.10045470447986
C         2.24800807374378       0.11645262332653       0.56960589234560
H        -3.08257271185387      -2.05061764456255      -1.30931485773085
C        -2.00644930447857       0.51750165329365      -0.88613946261401
H        -2.98419760737653       1.02810368534702      -0.88740738434408
P         0.07038827099491       5.75252014720536      -2.37001643309707
F         0.94592773648061       5.12552248031517      -3.64256779426652
F         0.26072633543458       7.28864206066766      -2.94453889406503
F        -0.15457763385338       4.20375144839328      -1.69226336038591
C        -1.49056747278396       5.40547062672566      -3.55805204069523
C         1.82003279066871       5.75232291814947      -1.40497894170966
C        -0.96360575035237       6.59157046166306      -0.85612528741692
C        -1.80322913158613       3.91276731849054      -3.93811943745178
C         2.80891251133264       6.92809248778633      -1.63897287603763
C        -1.73086813577628       5.69752911852619       0.16178961007857
F        -1.26361619110920       6.05242584307220      -4.74896685035019
F        -2.70945198459044       5.85575677987031      -3.09305743926194
F         2.53450249839002       4.62021808820241      -1.78475058433667
F         1.68428267682707       5.62458108887175      -0.03141016748855
F        -1.90629805141848       7.45699115824419      -1.35694340938080
F        -0.12961620329254       7.37270199246846      -0.08253059659000
F        -2.66241940435622       3.88924227991439      -4.99257405811405
F        -2.42903281907884       3.26495259485618      -2.90825522687745
F        -0.72100831380988       3.17493958054087      -4.28084658327376
F         3.11858917318647       7.04343688143717      -2.94828096376980
F         2.32019930866401       8.10404990079228      -1.19393240364066
F         3.97023726900260       6.68093997956152      -0.95606477276396
F        -2.60437287562210       4.85534190979685      -0.44325171258839
F        -2.43552622186560       6.46577057397064       1.03098899761016
F        -0.87756772728850       4.93064318275552       0.91346898621145
