46
C12H26F6NP optimized with DFTB in AMS.
N        -0.01307028067512      -0.40065987095991      -0.65210262528988
C        -0.95667474706709       0.65590555168403      -0.17130061541573
C        -0.67061452319280      -1.74909707827962      -0.56840373063282
C         1.18652998173481      -0.46012945866723       0.26719911559553
C        -2.29209451476971       0.63706359769826      -0.90754074976732
C        -2.00172675006037      -1.81186612823410      -1.30476511379122
C        -2.95715899962220      -0.73388394499550      -0.79655462716585
C         0.42634802909006      -0.13226819133070      -2.04919734097700
C         2.06171983615226       0.78839335066971       0.28362517036901
C         3.23612544776826       0.54606876996618       1.24092565577942
C         4.19162025296945       1.74181746253792       1.24895946036789
C         5.37976627249140       1.48820898676144       2.18221199127668
C         6.34440296421978       2.67276100924533       2.19030620704527
H        -0.46645611493454       1.62234263965256      -0.30278305462474
H        -1.11669134976561       0.48160215651193       0.89653989304886
H        -0.82339710651655      -1.96230844089193       0.49306941011436
H         0.03444175512958      -2.47352676599066      -0.98020454009307
H         0.79812815264620      -0.65985263225152       1.26970369514454
H         1.78024208200102      -1.31505290419683      -0.05710562208435
H        -2.92962351531673       1.39963512260751      -0.45248243976247
H        -2.15249405023141       0.90419116503736      -1.95837971529173
H        -1.85381217310329      -1.70686891057237      -2.38250080219143
H        -2.42791155208099      -2.80205469296025      -1.12488767165148
H        -3.21603236802207      -0.93264783551823       0.24855806114470
H        -3.87810772068095      -0.74536834054873      -1.38400064959161
H         0.86761083931663       0.85961193599972      -2.09997697337108
H         1.16224653173195      -0.88236760934860      -2.32705055079809
H        -0.42711052543643      -0.18354262173031      -2.71939846742751
H         2.46124554776079       0.98345887208426      -0.71354698611069
H         1.49298513540235       1.66497179898657       0.60997689449165
H         2.85421702746674       0.36924835594314       2.25253661252913
H         3.77545276547058      -0.34989777536446       0.92127199504777
H         3.65427578504672       2.64092264323525       1.57265720736405
H         4.55812825557577       1.91912753811998       0.23245961032256
H         5.91083974828609       0.58873700598040       1.85489982801914
H         5.01303504939703       1.30962495434562       3.19894480949154
H         6.73610799822823       2.85267505270674       1.18815021561183
H         5.83827806544472       3.57714474538742       2.53202859653143
H         7.18132203631428       2.46883951062765       2.85857570901069
P         3.58987578711532      -2.51868893264870      -1.82446572898036
F         3.46367008421903      -2.57488184326325      -3.45051868962370
F         1.91149262271780      -2.77649570495510      -1.71634596038945
F         3.83061272587953      -4.12228486180140      -1.73571312802342
F         3.61533166051429      -2.40570107790823      -0.16509317660902
F         5.18168450756223      -2.21099660492770      -1.89589602171657
F         3.26058180932288      -0.86890690144365      -1.87684694922552
