46
C14H26F3NO2 optimized with DFTB in AMS.
N         0.14239578373628      -0.56626599558895       0.36566928423956
C        -0.00798939568797       0.15152799261300      -0.94657989415693
C        -1.11914888029145      -1.31610265358064       0.67894417422147
C         0.32925493601658       0.43878226978810       1.48008811167980
C        -0.42405598225938      -0.77598156187829      -2.07969674601623
C        -1.54361117944635      -2.27020359794249      -0.43229177831709
C        -1.71542387617984      -1.51761695916524      -1.74965629460654
C         1.30138895439872      -1.50065879560187       0.34346671290314
C         1.55419191984608       1.35098396928979       1.33766976212991
C         2.46421375901989       1.30879092272811       2.57339418259559
C         3.83946088608691       1.90977631235222       2.24215140730376
C         4.73512624325817       0.90943951194382       1.49205706013789
C         5.73641710905648       1.60670011811115       0.57509581370873
H         0.95620699244027       0.60492744710845      -1.18672938347282
H        -0.75737651720707       0.93343953458170      -0.79425441950160
H        -1.90289451481168      -0.57056517685547       0.84144121381955
H        -0.95101558734584      -1.86001259211696       1.61176066489183
H        -0.58781816733598       1.03266586878709       1.51168068764192
H         0.38632516440694      -0.14614508539952       2.40279214008159
H        -0.56080212271389      -0.15702892832030      -2.96948245980891
H         0.37382159132531      -1.48853782894188      -2.29616987495828
H        -0.81224121743642      -3.07389007512717      -0.54909660637776
H        -2.49092131419671      -2.72382407259792      -0.12853465167038
H        -2.54524730318606      -0.80795934254777      -1.66281069826963
H        -1.95306236091926      -2.22400489809692      -2.54819634975360
H         2.19847591273771      -0.94171136278780       0.08706934352021
H         1.40236070188518      -1.95555607027704       1.32719797271064
H         1.14097004775069      -2.26650342983039      -0.40892570292399
H         2.14741191874644       1.07200124889655       0.46914790618691
H         1.21364522135487       2.37703122667579       1.17364769106717
H         1.99740999647293       1.86754408818409       3.39129555934244
H         2.59107910841373       0.27302539949658       2.90825900350210
H         4.32920044178117       2.21557259229082       3.17170516915364
H         3.69349133374686       2.81047598565244       1.63678378876079
H         4.11695767650166       0.25023654632668       0.87704500165820
H         5.26194775584280       0.28205553416663       2.21929441322978
H         5.20658968875068       2.17030363597306      -0.19289805453010
H         6.38020695710904       2.28631305035123       1.13577629575171
H         6.35427103571241       0.86109880440642       0.07519136983780
C         3.85154202642599      -0.07316690904451      -2.04872902892532
O         5.04516671212163       0.06847707550000      -2.17400856095161
O         3.00977360082415       0.41560592967183      -1.27805283721905
C         3.14291255137273      -1.15383521726155      -3.04645519960128
F         2.56912873906876      -2.14846510124917      -2.30012402967572
F         3.93637073796424      -1.75405488417007      -3.93250595459171
F         2.11728473614267      -0.60205976621359      -3.73782294614761
