43
C11H21F2N3O4S2 optimized with DFTB in AMS.
N         0.08388949310831      -0.54748937314181       0.73707093499255
N         1.61452766115343      -1.34867282160500      -0.55368743266869
C        -0.58335427622404      -0.11492179862530       1.96980638813441
C         2.90585666748800      -1.85545146136667      -1.01144194800675
C        -1.65465568124450       0.94675953014751       1.73384463554760
C         3.82532640867144      -0.71738279593356      -1.46829709913247
C         1.33161221560155      -1.01324456189989       0.70368327515241
C        -0.43307169164684      -0.56766333774651      -0.53064315272459
C         0.53373551864734      -1.06695742664963      -1.34477482764753
C        -1.08306501957884       2.24423369361184       1.15435588065856
C         3.36621801109056      -0.07325166888084      -2.77869102051785
C        -2.17139649712001       3.30115059214427       0.98656541721185
C         4.35803913061188       0.99284280429122      -3.24009483375248
H        -1.02935015534008      -1.00372831150816       2.42991399310875
H         0.19420903406700       0.27202278935932       2.63385783941820
H         3.35919616128841      -2.39157616332194      -0.17386491595351
H         2.71849455548659      -2.55976888863580      -1.82700234476260
H        -2.11002469378967       1.15129163520011       2.70791149708573
H        -2.43935241230163       0.54959415365694       1.08195238242287
H         4.82441619002920      -1.14436443421582      -1.59756063055717
H         3.87788232492721       0.03586795806416      -0.67756621943137
H         1.98964453410546      -1.11420369944058       1.55116479744796
H        -1.42903904626321      -0.23469622679908      -0.75928650229317
H         0.53403749084901      -1.25132175502416      -2.40413314125494
H        -0.30495906784833       2.62525587248589       1.82055982766558
H        -0.62377544325411       2.04031323758502       0.18361456784327
H         3.26692483716211      -0.84567074161670      -3.55021281579599
H         2.38653624131185       0.39006489222031      -2.63293522428116
H        -2.63173251455764       3.53479103630136       1.94753024242950
H        -2.94756491077296       2.95113648847504       0.30385735504200
H        -1.73366844522758       4.21197569578613       0.57953423645735
H         5.34629292004940       0.55801958039923      -3.39659874194218
H         4.43682291470294       1.78373834497375      -2.49548665922157
H         4.01692712777418       1.43184700072482      -4.17751878792638
N         2.57993172187133       1.28643653284035       0.77598686734702
S         3.04126059586959       1.47752171154950       2.28263928514886
S         2.21648719493257       2.58352029277625      -0.07589195233290
F         1.64926355986739       1.91240943418845       3.02645832372273
F         3.65783961630490       3.05325471146919      -0.63546985437349
O         3.28024407828147       0.15855054872668       2.79066983612272
O         3.95417525510321       2.52338801117714       2.58225470148067
O         1.70689497650788       3.71031192557602       0.62920806962891
O         1.52474526710521       2.11909490708097      -1.24113708669273
