56
C16H34BF4N optimized with ForceField in AMS.
N        -0.01754368148931       1.98781493766190       0.00154275624989
C        -0.69743783719130       2.89442885742989      -0.97471390126008
C         0.64217011006118       2.90225933771376       0.98447277257246
C        -1.03027566085066       1.14229731544036       0.71391377374749
C         1.01379915804981       1.16799567221583      -0.71518590911600
C        -0.22373599150740       4.31220179813164      -0.71819313871608
C         0.13345959908706       4.31010842647991       0.74079731064878
C        -1.77678392620137       0.12922842400754      -0.18642166574793
C         1.77672657033881       0.16235875411370       0.18120226844660
C        -2.87334867692434      -0.59180612262011       0.60780350294372
C         2.89021920149900      -0.53398420189810      -0.61128433502046
C        -3.62572671736606      -1.59866017965971      -0.26983693573763
C         3.65697734291764      -1.53197684724296       0.26452011790759
C        -4.68846118399109      -2.34661368478568       0.54407529058364
C         4.72942384919824      -2.26421494714395      -0.55118927502376
C        -5.44442072991028      -3.34886791509331      -0.32303252685026
C         5.49757980977151      -3.26000325126048       0.31263622146245
H        -0.50723375629238       2.62115452839300      -2.03773443257936
H        -1.80421282741643       2.89752356366823      -0.84782925538326
H         0.46072667640294       2.61562316808391       2.04568527733685
H         1.74832000518283       2.93284068907623       0.85593990857056
H        -0.55114668383694       0.57913189626870       1.54319113124387
H        -1.78529403027932       1.80016664239262       1.20500799647850
H         0.55040109081711       0.60477450713956      -1.55501315564603
H         1.75838741352605       1.84515355838694      -1.19560603473117
H         0.68108657399092       4.52531138523210      -1.32972268842061
H        -1.01354237069259       5.06150757388803      -0.94423448530459
H        -0.77643473198509       4.49505790886142       1.35401509259598
H         0.90437703498204       5.07678647413406       0.97356725190650
H        -2.23861282205242       0.64370343513625      -1.05484446101496
H        -1.07002737025013      -0.63594345720003      -0.56915918967372
H         2.22491548801568       0.67999897062223       1.05500459688505
H         1.08364868143229      -0.61914176856510       0.55566293555808
H        -2.40941236924804      -1.12626357826887       1.46597718292804
H        -3.59379849360838       0.15608059415167       1.00602168284942
H         3.59882171053015       0.22878552071451      -1.00235071065939
H         2.43942517693621      -1.07265214512651      -1.47364288357217
H        -4.11619306282722      -1.05930920426066      -1.10987333567041
H        -2.90463492222573      -2.33206881206628      -0.69325337139232
H         4.14027121672583      -0.98721825007331       1.10520381356385
H         2.94646568347610      -2.27609413430702       0.68711513567994
H        -5.41432989486333      -1.62046230069119       0.97033062772102
H        -4.20242281595279      -2.89233063067513       1.38200337983862
H         4.25054050074245      -2.81355962438438      -1.39087874024199
H         5.44626048939271      -1.52776930454982      -0.97502437626205
H        -5.96624309138364      -2.82554603122087      -1.15220356556544
H        -6.20073413922715      -3.87790114299515       0.29421820147642
H        -4.74356931444841      -4.09981848461628      -0.74570310459479
H         4.80601806579944      -4.02102330576710       0.73259643820647
H         6.26023506041414      -3.77767563108216      -0.30649166967845
H         6.01302043289147      -2.73317925229032       1.14353802310858
B        -2.06614618390789       0.38623876881845       4.97354229018023
F        -2.13956504114321       1.41513855902257       5.94976525498875
F        -0.96867500000826       0.63487036230225       4.10876459486095
F        -3.26932093365385       0.36142288973458       4.21906746191834
F        -1.88526233244661      -0.86613235927737       5.61840667890427
