55
C15H32F6NP optimized with DFTB in AMS.
N        -1.33269185931966       0.68786852173749      -0.24649104039669
C        -1.70258116273430       1.78884894664476       0.70256030706333
C        -2.43954199125726       0.52816169714243      -1.25305401625906
C        -0.10621801489868       1.10582308748280      -1.01981158318996
C        -1.08858455098680      -0.58170380208827       0.52121668384856
C        -3.05549734494469       1.57859706387418       1.37599391101087
C        -3.79578388869570       0.27042016536640      -0.61706559157541
C        -4.16545480974231       1.40037729825171       0.34122961398691
C         1.16050347156553       1.30140820207504      -0.19440167633136
C        -0.61491510174394      -1.76376267512544      -0.32184109139677
C         2.30240005690418       1.68027270132881      -1.14746369428519
C        -0.43793390455664      -2.99099906781993       0.57862423574704
C         3.61896106560003       1.86375392111905      -0.38742527096433
C         0.03539973751366      -4.19594405609758      -0.24111283498572
C         4.75621799448266       2.23422645453524      -1.33759944176309
C         0.21421850969771      -5.43071821809950       0.63941715908604
H        -1.71905856923939       2.71368072055135       0.11935809896108
H        -0.91607283945001       1.86037859925028       1.45647219185607
H        -2.16710108811181      -0.28152845785938      -1.92807743135976
H        -2.46998719413277       1.45384729792219      -1.83174360926592
H        -0.36554600099563       2.03479892588725      -1.53172054264928
H         0.06096268945633       0.34404690922605      -1.77969714843112
H        -2.02340956568129      -0.84579191549248       1.01886741883844
H        -0.35148632259281      -0.34998376603017       1.29441189033108
H        -3.25357260419902       2.46213453276776       1.98899473712792
H        -3.02066349035384       0.71411767310787       2.04474316649457
H        -3.81028140010256      -0.68999555292426      -0.09460168787796
H        -4.52497971927222       0.21591681674198      -1.42912780753541
H        -4.29477964313061       2.33084635567386      -0.22072347451617
H        -5.10677551488243       1.17351816162927       0.84692728675740
H         1.02955916584041       2.09416049849413       0.54843518633531
H         1.42829073431151       0.38180320777959       0.33277277954144
H        -1.34248988440469      -1.99227720970381      -1.10231810168972
H         0.33459043062705      -1.53598364945094      -0.80924319024746
H         2.04612706942406       2.60754485045980      -1.66965062943999
H         2.41874791364934       0.89433218538557      -1.89998271529940
H         0.29366172026178      -2.76843697854915       1.36361052305484
H        -1.39000853160993      -3.22854357811817       1.06635612510464
H         3.86895500163072       0.93488083052500       0.13674027770245
H         3.49957251163957       2.65083255005746       0.36539253964076
H         0.98556647162163      -3.95208120231578      -0.72678739434818
H        -0.69675929691773      -4.40907400721484      -1.02617098465404
H         5.68390372089032       2.35811454189856      -0.77873340619904
H         4.90018621415894       1.45142215132984      -2.08301664922334
H         4.53306529861950       3.16857944111195      -1.85404056964702
H         0.55098697984294      -6.27232380059502       0.03432564483657
H         0.95581605118956      -5.24299739829003       1.41738246034673
H        -0.72890970642202      -5.70106896837565       1.11661295036213
P        -0.99445517581694      -0.29122877662942      -4.53882406601071
F        -0.50095374824327      -1.08231557802087      -3.12078762658439
F         0.57564498551872       0.01192277995642      -4.87823001033247
F        -0.94477860555499      -1.70820670087857      -5.33372257774046
F        -1.49363155434311       0.50941260267476      -5.86042496241191
F        -2.56301001256199      -0.57586282638606      -4.08130834761179
F        -1.04999282384713       1.14019978857642      -3.64803876981113
