49
C13H16F18NP optimized with ForceField in AMS.
N         0.82670927848591       0.00135776628440      -0.03980573201205
C         0.06559090318372       1.22978413348405      -0.41148807753914
C         0.06933059086169      -1.22876666191307      -0.41344012888637
C        -1.36781789254144       1.25399963836350       0.14913346274962
C        -1.36227175174506      -1.25822257648178       0.14950772298110
C        -2.13233061813307      -0.00385914962297      -0.25740780358636
C         1.16119480683137       0.00122585848303       1.40793371317807
C         2.10519216933489       0.00341495331740      -0.79282760747031
H        -0.00935788036276       1.31517893682611      -1.52062087513263
H         0.59826099925700       2.14220550841418      -0.05823307565480
H         0.60512852447578      -2.14017894199842      -0.06237802561838
H        -0.00703345409550      -1.31217403661131      -1.52260090440103
H        -1.89852698078400       2.14353917852730      -0.25355902376908
H        -1.35783818916092       1.35467513078945       1.25463764895329
H        -1.34550031326667      -1.35570863543651       1.25466434361815
H        -1.89143516975038      -2.15074480823723      -0.24865951354759
H        -3.13020119459373      -0.00540490563613       0.23181739186194
H        -2.28941949184806      -0.00441420358596      -1.35869928029680
H         0.25900719364750       0.00327736284494       2.05042504354543
H         1.75681124325784      -0.89896592319821       1.67975604233412
H         1.75940129989479       0.89988886466199       1.67924147768739
H         1.92841383316712       0.00331023461475      -1.89209075320464
H         2.71285246737095       0.90466538965813      -0.55071001873112
H         2.71535824285625      -0.89625788897916      -0.55099324421189
P        -5.10431221563269      -3.16366417016375       4.29204068122004
F        -4.38329676472104      -4.22236965331193       3.14067311306412
F        -4.01395386208175      -1.92493082813137       4.79077611531358
F        -6.43781856488255      -4.09785923533885       3.73691868840132
C        -5.03683504476326      -2.01611433300737       2.73043153720065
C        -4.00823390299155      -4.39966113500128       5.30217758411239
C        -6.48061357723942      -2.67686215338353       5.55825219193135
C        -5.77756535752669      -2.49425754465534       1.45225527618953
C        -3.86746237787781      -4.14162867720374       6.81742390863746
C        -7.59582856181250      -1.73621173330692       5.06014526328866
F        -3.70985411628723      -1.83577965619099       2.36408816960135
F        -5.53245551052875      -0.76824568156140       3.05116677150572
F        -2.71054425289489      -4.39348189816131       4.79806330197381
F        -4.52518847753145      -5.67929158744593       5.15451780063076
F        -5.88884112396232      -2.02571157459133       6.62541116367023
F        -7.08405984925130      -3.82245178061475       6.05837524572749
F        -5.73932589385461      -1.47862328382164       0.51306540480889
F        -7.10186596718970      -2.79186235713131       1.69230992418531
F        -5.16365280759157      -3.60052556734902       0.89291810075155
F        -2.92346253413502      -5.01479930311550       7.32966408298831
F        -3.43336733793456      -2.85509556393646       7.07605607106147
F        -5.05198897600179      -4.38006784542620       7.48523592963581
F        -7.12108003754149      -0.44698039046890       4.91017595209550
F        -8.60327109661294      -1.69680786976172       6.00850251846556
F        -8.15127118679634      -2.16924355688795       3.87671220289216
