59
C17H21F18N2P optimized with ADF in AMS.
N        -0.57567252046873      -1.94504903199107      -0.31568929996204
N        -1.63113060306538      -3.58648542740432       0.63916222454112
C         1.44201809217025      -0.46873601931784      -0.38020864394162
C         2.85676126669226      -0.84837901248709      -0.82662635373347
C         0.35052962116662      -1.20008209614519      -1.18529318916691
C         3.92135088273624      -0.37777036107775       0.16084649847057
C         5.32292541044549      -0.86885200362665      -0.19948680736420
C        -0.75935468597265      -3.27242260379842      -0.32650322031786
C        -1.33769928599815      -1.39959524141021       0.69599055814334
C        -2.00065125770828      -2.43156591166864       1.29462213496408
C        -2.04976791941621      -4.95301733102558       1.00423945608667
C         6.36691002760147      -0.44894661642608       0.83244693572152
C        -3.55576342300918      -5.12176696097389       0.90745501244551
H         1.29734074649647       0.62233499794888      -0.45183744193577
H         1.33092445604768      -0.74046317019054       0.68167177795572
H         3.05844652102425      -0.43982491939402      -1.83404766837708
H         2.91922044212723      -1.94508163580288      -0.90740620475882
H        -0.26043681723419      -0.51495493756327      -1.79287627903788
H         0.79532137430478      -1.94324284403643      -1.86147794139828
H         3.65964492817154      -0.75979551645507       1.16483674754326
H         3.91670848979557       0.72673866068401       0.22992165284729
H         5.60308592828582      -0.48676888372634      -1.19813027128207
H         5.30234401135362      -1.96989139957372      -0.27750214233397
H        -0.23074980826094      -3.97979155919598      -0.95259713831044
H        -1.32560816386486      -0.33833970523852       0.91241488965915
H        -2.68143792462709      -2.44180524698334       2.13606877110109
H        -1.51711538369899      -5.63383358561953       0.33103128373327
H        -1.66286208813900      -5.14518241509935       2.01604740613737
H         6.11000881717157      -0.84754985232614       1.82690292634322
H         6.42573999906710       0.64837955849589       0.91355090730808
H         7.36826436591332      -0.82287670773153       0.56981860912100
H        -4.09239671883078      -4.46107870052186       1.60396400287961
H        -3.81105271903537      -6.15952745421389       1.16670049625098
H        -3.91021349320485      -4.91974945979957      -0.11399829583034
P         2.07902429888854      -5.85652151362951       1.48197436913064
F         1.00477639069785      -6.21054390476837       2.70922401576715
F         3.36945310305852      -6.08820419933815       2.48613624250805
F         0.80279796454789      -5.54989879761639       0.38681457042913
C         1.93559664488699      -7.79479420540195       1.07751484590208
C         1.83852911982352      -3.96301463333291       2.07289792695138
C         3.42979427571942      -5.41757803280229       0.05348820171654
C         0.53671811256910      -8.36403516779751       0.65276036052332
C         2.72241298752333      -3.39606439652876       3.21840890064153
C         2.98955051836792      -5.27226435673382      -1.43238709082468
F         2.27639482358222      -8.48469057578637       2.21631766845269
F         2.77283037416875      -8.24006603968588       0.07825472643496
F         0.53919433480663      -3.78945664091282       2.53697525758324
F         1.94178754920754      -3.07078658468242       1.01980535650396
F         4.42391954913035      -6.36268521367845       0.05037142786951
F         4.06864347548948      -4.22536521320626       0.34827136150316
F         0.60611412652949      -9.72261227866716       0.63365223013361
F         0.18925990908308      -7.96100031619053      -0.59962450405718
F        -0.47106232035588      -8.02117898092864       1.49182997979850
F         2.33531397383831      -2.10612211607507       3.49096045433986
F         2.56163091845060      -4.11679157960088       4.34723844409426
F         4.03107416805981      -3.35737196371045       2.89628064258891
F         4.07335608299718      -5.02932076762352      -2.21534710918800
F         2.13494262414546      -4.21171956384859      -1.60674397452729
F         2.37113365664727      -6.37428701035734      -1.90130369407743
