66
C18H34F6N2O4S2 optimized with ADF in AMS.
N        -0.03310195356260       2.35964736698949       0.57600417484745
C        -0.64585698120017       3.30693856713208      -0.46819432097643
C         0.40596344042958       3.27721839157173       1.71395178394896
C        -1.08368277790003       1.40303541318368       1.10309225901698
C         1.16183539914018       1.63169986666270      -0.01530275220069
C        -0.83235671707748       4.66688288527362       0.21908957446595
C        -0.60125371936323       4.40933211558213       1.71344880842485
C        -1.56422146753969       0.34733617088249       0.12094922808620
C         1.90130546604898       0.75023404606781       0.97092803358026
C        -2.77876028872394      -0.39613907724261       0.68638672959352
C         3.19702184178213       0.23243781006616       0.34110457625158
C        -3.28411789559761      -1.49393702522525      -0.24818285890973
C         4.03832407314560      -0.56295424136208       1.33556312092118
C        -4.50277722014110      -2.23597925538842       0.29831603041952
C         5.40307646787277      -0.95313239841724       0.77418519210358
C        -5.00199943474198      -3.32357453635468      -0.64963821807030
C         6.25920310597506      -1.70002584721903       1.79375564164108
H         0.06240729078063       3.37270994810281      -1.30299540839137
H        -1.58345860402040       2.85547288832704      -0.81318309031324
H         0.46054843683264       2.69763782533666       2.64244290552308
H         1.40865136980522       3.63658984825252       1.45404067619608
H        -0.64884714256614       0.92357040165184       1.99242560407183
H        -1.92300747425771       2.03317060447503       1.43492284444112
H         0.78657445055158       1.05959655304632      -0.87741692343224
H         1.82811883142343       2.42753429517611      -0.38251499775859
H        -0.06199974844501       5.35559769345826      -0.15609657858101
H        -1.82268232589433       5.09521366634197       0.01164175285782
H        -1.53100653016314       4.12240191063588       2.23085529559928
H        -0.18187758178495       5.28933515961567       2.22227741715213
H        -1.84040753169950       0.80140579311083      -0.84633024079982
H        -0.75888157598781      -0.37753289454684      -0.08312872189935
H         2.17637049849070       1.33803165581678       1.86129873483009
H         1.27904612634705      -0.09984773830433       1.30426203731712
H        -2.51902945263344      -0.84003314077435       1.66549895952548
H        -3.59510188687688       0.32536203080669       0.87721423744699
H         3.78451679243955       1.10031044156465      -0.00437578241670
H         2.96620090104271      -0.38978229234360      -0.54421492187695
H        -3.53821036372600      -1.05072442381667      -1.22957456693198
H        -2.46989074459743      -2.21902133049779      -0.43552246218712
H         4.19552164108429       0.05801271916895       2.23627536620388
H         3.49032141201794      -1.47040233881339       1.65623437623566
H        -5.31467543781650      -1.51074904320879       0.49094220078087
H        -4.24801892126622      -2.68373106454941       1.27623892099029
H         5.26870189077479      -1.57337084831228      -0.13178701879101
H         5.92354218214341      -0.03189037661001       0.45995077124361
H        -5.29273273916865      -2.89550522781534      -1.62269477616665
H        -5.87759381761894      -3.84576503944044      -0.23637389143176
H        -4.21783137753199      -4.07492503285404      -0.83635918469817
H         5.77406538943375      -2.63751757985817       2.11217131721161
H         7.24764425286971      -1.95237140335553       1.38150308725008
H         6.41690268293722      -1.07944643542371       2.69075873597482
N         3.72975054372969       3.87772797587076       0.53406189165104
S         3.04235541451994       5.22740165667932      -0.01912521247310
S         4.95554443629365       3.85155766904621       1.59302841145901
C         4.33602575230876       6.24122476882179      -0.99192448672314
C         4.14932772261001       3.98333001411988       3.30214426011216
O         2.11036876542242       4.77191708608318      -1.06084268715660
O         2.53487992366677       6.14502650905671       1.00099533492426
O         5.85045564348212       4.99728119739016       1.52607212996413
O         5.46823001940344       2.48729064094276       1.60035597518649
F         3.67727118886881       6.91906331222845      -1.96541752317613
F         5.24762408495841       5.43243670394041      -1.57021389382854
F         4.95848654589986       7.13024728417727      -0.20149641474670
F         5.06444466387038       3.67749850540291       4.24909823007181
F         3.11474660607249       3.09156604806408       3.41925818558282
F         3.66307241312722       5.21557337301015       3.55035232483266
