26
C8H14N2O2 optimized with ForceField in AMS.
N        -0.52878135515582       0.19191582554128      -0.36115908256855
N         1.65850781843015      -0.05969206535344      -0.05325549924821
C        -1.92688925954206      -0.10494619044086      -0.66320593278863
C         0.50865368782463      -0.66689179978285      -0.40584441963934
C        -0.01712501086994       1.37886937026520       0.02566091259955
C         1.34129857090633       1.22212268968846       0.21591912085942
C        -2.74510229424885      -0.17025220854522       0.62110690162846
C         2.98031678462689      -0.66555953273409       0.04420487769629
H        -2.33901661020955       0.67922318832087      -1.33449957106430
H        -2.00359373048017      -1.08227849760657      -1.18793517114240
H         0.42605405462321      -1.71246707482313      -0.67771853661087
H        -0.58783375665887       2.28910865812360       0.15899375076676
H         2.04303459908210       1.98403652766624       0.53082401955577
H        -2.34812563660081      -0.96981364115347       1.28235179603982
H        -3.80413889041522      -0.39931507354240       0.37864096215761
H        -2.70161088476601       0.80170924505813       1.15632999446875
H         2.93308332026205      -1.74650359779020      -0.20767925680955
H         3.67533330178695      -0.16220681326553      -0.65988215380080
H         3.36471697237869      -0.55623935894012       1.07982759917919
C         5.73536609070417      -0.28576783070579       3.59157921530564
C         6.16616140785104      -1.16036760824780       2.45665864532722
O         5.57355146183392      -2.20310834822229       2.23197918841680
O         7.10867331950806      -0.83572579077884       1.75249156634580
H         4.68776858421444       0.04486223804298       3.43058275156249
H         5.79719783580572      -0.85315759717105       4.54400017708762
H         6.38767813140896       0.61073119509690       3.66569167187546
