34
C10H22ClN optimized with ADF in AMS.
N        -0.51070589658292      -0.20075814822447      -0.00331349072897
C        -1.45932417577924      -0.73930990202139      -1.06462729588792
C        -1.47140992781858       0.15777942126604       1.11867295604762
C        -2.69553496221177       0.15707625137179      -0.99540644457584
C        -2.68519083080592       0.77134691489159       0.42777796881137
C         0.19974351742221       1.01607357540359      -0.53504339342084
C         0.44169544731881      -1.27553164328442       0.47189176793881
C         1.22336482441043       1.63134462478756       0.40440321499655
C         1.39849714251011      -1.77148820633107      -0.59535746924477
C         1.76447667116684       2.92925300747413      -0.19097893302060
C         2.19258907677158      -2.95914149018367      -0.05132419481062
H        -0.94541115403113      -0.73997385506248      -2.03404025637063
H        -1.71792511732193      -1.76178021054590      -0.71428713614122
H        -1.74835697118398      -0.82192088320736       1.56423577282553
H        -0.96116003467326       0.80795944458842       1.83949694408215
H        -2.68497449269697       0.94143786540729      -1.76760238464845
H        -3.58766215842649      -0.46566185573816      -1.15423139158736
H        -3.58928000228461       0.49818826683641       0.99050289438660
H        -2.63305198981514       1.87041213143273       0.38698894354895
H         0.68184415129994       0.71257460373738      -1.47688773000294
H        -0.58227863245032       1.74935077201358      -0.78401772528457
H         0.98002794839046      -0.86232839626235       1.33891809052341
H        -0.23061186987258      -2.09343515130295       0.82038723311915
H         0.76870643272789       1.83883789138042       1.38686785482468
H         2.05331967254429       0.92687945591069       0.57443224863414
H         2.09265522623853      -0.97791608398001      -0.92671211051874
H         0.82706462744456      -2.10049626692844      -1.47915220079012
H         2.24207749828856       2.74781584473505      -1.16655412960791
H         0.95608914908742       3.66144694156018      -0.34016344953114
H         2.51387583060182       3.38202204531130       0.47298935635009
H         2.77759895828004      -2.67152667019656       0.83598224023346
H         1.50879782971457      -3.77017600051536       0.24067773530597
H         2.88963307275264      -3.34531285422578      -0.80866798291315
Cl       -2.28862460831589      -3.04235035129778       1.12144594055729
