40
C12H22F3NO2 optimized with DFTB in AMS. Optimization did not converge!
N        -0.18364479069556      -0.58964217089264       0.48855133163183
C        -1.25621712807397      -1.33424899198832      -0.26861638153447
C        -0.77942418896309      -0.28572190809879       1.85029698813619
C        -2.57462975271515      -0.86997432352122       0.32548142043807
C        -2.24894050599254      -0.69977663936295       1.80357451422302
C         0.09893316116755       0.69081665422539      -0.24389136210486
C         1.05696751797507      -1.42173876414665       0.62345719754495
C         1.22515882967705       1.53945839798316       0.34760367952232
C         1.64412675577675      -1.85646443835975      -0.72177026558516
C         1.24841463307931       2.90469422049212      -0.33951689027719
C         2.84410845527357      -2.77274793879689      -0.48446994001369
H        -1.16527234423514      -1.11630044886741      -1.33273105823746
H        -1.11735307947307      -2.40366491874181      -0.08823174980901
H        -0.22951881166533      -0.83552165221583       2.61601741876923
H        -0.67929615544505       0.78462555039397       2.03363586600613
H        -2.90756616632646       0.06688689475353      -0.13121513425436
H        -3.34035987463366      -1.63185223039951       0.17609101082917
H        -2.37442526497003      -1.65496202725049       2.31920965152781
H        -2.87815439574762       0.04837895500600       2.28761597574955
H         0.34192366767601       0.43533640503664      -1.27775811514401
H        -0.83593620276806       1.25813483912430      -0.24452480008028
H         1.80559974485405      -0.84407285142711       1.17003866700537
H         0.82636635416204      -2.30895090916290       1.21476965361849
H         1.08341351998595       1.67910504038328       1.42208303550646
H         2.18914528083784       1.04821317337055       0.19391702824341
H         1.96504479539429      -0.98644366996476      -1.30253929364382
H         0.89215988108632      -2.39557773240738      -1.30331134739609
H         1.40129521798617       2.79048239771509      -1.41316288212995
H         0.30941895422971       3.43402160206072      -0.17449277700798
H         2.06225859663180       3.50460828170576       0.06606166696778
H         3.62721719416939      -2.24332931063802       0.05955765437793
H         2.54458402847648      -3.64468509711691       0.09591349344207
H         3.24525862374129      -3.10657769182457      -1.44065097463274
C        -0.85549431504508      -3.66052857699440       2.61302836656797
O        -0.89063681913642      -2.93402026340329       3.60209280368578
O        -1.44040859624554      -3.60901368347562       1.53225799081249
C         0.32273082794589      -4.77359063446707       2.68475026602691
F         0.11072796371462      -5.97129959788879       2.13761946489123
F         0.79951114819765      -4.95292075954897       3.92473649563212
F         1.34224987499300      -4.18189157758849       1.98284546809481
