59
C17H34F3NO3S optimized with ADF in AMS.
N         0.81677670855370       1.53469106857538       0.04906823318741
C         0.29394907293489       2.63377219897817      -0.86645629574923
C         1.76680435251837       2.26450227423564       1.02817441783352
C        -0.30587198583938       0.86472057757277       0.80311101342278
C         1.61383004160793       0.53881164219641      -0.78784014533135
C         1.42807918384134       3.63832669750509      -0.93615533021974
C         1.89654694096255       3.70440825547504       0.52085393212206
C        -1.30419996668587       0.12232012687240      -0.07159314065431
C         2.14661206196213      -0.64974209232673      -0.01169343163999
C        -2.44570094094334      -0.45930740765842       0.76822348606151
C         3.16184747259151      -1.40484803517667      -0.87376931737726
C        -3.46178818571846      -1.22870861429773      -0.07685211100604
C         3.80274880837808      -2.56837162682804      -0.12422214638400
C        -4.61431975504644      -1.80375301356918       0.74514828988092
C         4.91693439494105      -3.23338940173516      -0.92942956379140
C        -5.62552747306223      -2.56817581856557      -0.10565461781738
C         5.54403594130383      -4.42058104318248      -0.20527408206548
H        -0.00560373614051       2.19176697980368      -1.82453750369283
H        -0.58744894928074       3.06667696616089      -0.36738349928722
H         1.33228222787556       2.19086571058596       2.03401165583888
H         2.73461690001657       1.74457362717873       0.99966773099116
H         0.16497195374297       0.18113497764838       1.52456098079878
H        -0.80654971620685       1.66491306905065       1.37278171915625
H         0.95192746797266       0.22089771908644      -1.60701927245342
H         2.45593447213031       1.10805354459960      -1.21741878981055
H         2.24363649331186       3.27769893854719      -1.58301712102745
H         1.07966441511680       4.60733222794859      -1.32025596714262
H         1.24828850182678       4.38168181909715       1.10077077579913
H         2.93922999966217       4.04661347168049       0.60076060263649
H        -1.72735056878135       0.79972923975260      -0.83317043978402
H        -0.80043015730961      -0.69803537801733      -0.60904142131542
H         2.67342677201234      -0.30419641928132       0.89257063626223
H         1.33347565892001      -1.32946670363507       0.30105377393260
H        -2.02994467261725      -1.13187756953276       1.54127507155460
H        -2.96305630693555       0.35600766605313       1.30723769612702
H         3.94729181735677      -0.69305255173859      -1.17410431711231
H         2.67851875161973      -1.77347736616490      -1.79799404085227
H        -3.87077112268875      -0.56041785933666      -0.85817061256775
H        -2.94804257645111      -2.05097788920830      -0.60971718576184
H         4.22361890939794      -2.18866233741176       0.82547669873189
H         3.03499058066862      -3.32070741863440       0.14273295042327
H        -5.12699198171772      -0.98221317321940       1.27869632510077
H        -4.20674804439019      -2.47242650769553       1.52522178094811
H         4.51647728930908      -3.56253696502648      -1.90618131544959
H         5.69133357029404      -2.47750354412398      -1.14871879630408
H        -6.07121465341861      -1.91532693482411      -0.87370956848900
H        -6.44343042932070      -2.96866205086115       0.51159475997774
H        -5.14755255972179      -3.41549767987960      -0.62371136496218
H         4.79581315403225      -5.20553730082480      -0.00753347945434
H         6.35451438019508      -4.86786675904102      -0.80039314540565
H         5.96847299092429      -4.11031971183038       0.76337370711871
S         5.08030690746176       2.13407231361802      -0.69003883498984
O         4.74873229745942       1.18764092620218       0.40109486506673
O         5.32628055497434       3.51926311725577      -0.27072057831112
O         4.22124521965801       1.97896683463514      -1.88981454449444
C         6.75479184281042       1.53005322993532      -1.29072740136799
F         6.67261117130284       0.25325778373939      -1.76622274797581
F         7.66725505070115       1.53876320106411      -0.28541745602067
F         7.22293036332727       2.31720503427321      -2.29245037510396
