41
C11H22F3NO3S optimized with ADF in AMS.
N        -0.30722928002232       0.05882933170402       0.45669019158763
C        -1.07672011940726       1.35469224532101       0.23334777999662
C        -0.76984080026561      -0.98824435262923      -0.52926072763383
C         1.16192742015690       0.38955168089553       0.21398850274938
C        -2.58290473887383       1.16070593255952       0.26095464137855
C        -2.27355747222652      -1.21475848787038      -0.49367759382996
C        -3.03723385252679       0.08828897684571      -0.72916025041192
C        -0.50048037078372      -0.40736193127816       1.87028572022318
C         2.15504768514039      -0.71057133574711       0.53665128142929
C         3.57313987236008      -0.18830279009441       0.27476815852636
C         4.63639224202611      -1.19422962146654       0.70115212329218
H        -0.75043410802342       1.71962941814263      -0.75465437464453
H        -0.72068216339237       2.04678056770028       1.01440194295532
H        -0.21098188551258      -1.90763165073380      -0.30578089431124
H        -0.45930243677507      -0.62347590930694      -1.52240683977513
H         1.39105417756303       1.27597945214695       0.83067842845948
H         1.22286053781009       0.67535499765912      -0.84891890090596
H        -3.03783312271505       2.13598316960997       0.01864666809084
H        -2.91957498728092       0.91714225412948       1.28252987601344
H        -2.57028066192739      -1.66800444941552       0.46750894538688
H        -2.51342373892083      -1.95869924075796      -1.27221102902589
H        -4.12211892334908      -0.08382687682359      -0.64188965884400
H        -2.84772792242734       0.43801055785643      -1.76130423626952
H        -1.56710922912885      -0.56771960819378       2.05222545211542
H         0.04515094519805      -1.34721434374211       2.00585395489017
H        -0.11712952743770       0.38725290108985       2.53000021648573
H         1.97869263217668      -1.62480308740392      -0.05845811149315
H         2.09222605312447      -0.97470520701432       1.60360427323658
H         3.69932308658371       0.75235678333765       0.83609518211764
H         3.68672671830724       0.05456508194453      -0.79723310830501
H         4.53705821881254      -2.14682568734200       0.15602575395761
H         4.55601694178546      -1.40736378252283       1.77884125288046
H         5.64567765182396      -0.79917443828170       0.51282432856240
S         1.65679925104182       2.77008040235588       3.16005527647503
O         2.50347966014637       2.55348948701965       1.96676569995280
O         0.24975662299081       2.32188975636961       2.96843385474199
O         1.83115730191612       4.03167636054415       3.87106843307483
C         2.31825932597779       1.48963235029836       4.36430551563767
F         3.62966055137023       1.69695306123969       4.63565909226186
F         2.20775953788722       0.21401714287547       3.85110750292408
F         1.63349067509754       1.50663969967879       5.53598371744673
