61
C17H24F18NP optimized with DFTB in AMS.
N         2.77820071462737       0.21670922431083       0.21270106690189
C         2.95054629070797      -1.00228179371583       1.07962520460866
C         3.88293544469823       0.10865877018302      -0.80176699861398
C         1.45774187456355       0.19308284753286      -0.50360196935404
C         3.65525308733118      -2.05644019615023       0.22165377155771
C         3.97150360750574      -1.37587227049543      -1.11431305441836
C         2.93013185637435       1.46724148406128       0.99973766362255
C         0.23945488805837       0.42552094595350       0.38878044369545
C        -1.03924878847488       0.14923930932463      -0.41252045085216
C        -2.28596570570086       0.39584089802030       0.44260245428951
C        -3.56548077086193       0.11894523606857      -0.35334733293175
C        -4.81084359473452       0.36355734040073       0.49645063397811
H         1.97477483555476      -1.32789927664287       1.43889598021200
H         3.56282265553575      -0.71685254765798       1.93455785460360
H         4.79839839028323       0.46176585059438      -0.32598966033069
H         3.65217831532536       0.73539292496549      -1.66308570545698
H         1.38174482997984      -0.78083701514087      -0.99247488937918
H         1.49911197344849       0.96741865155603      -1.27429152557912
H         3.02472688414438      -2.93515428165111       0.07834558845804
H         4.57582885891925      -2.36930796667637       0.71736791513186
H         4.96994324894674      -1.63260140112427      -1.46859071899248
H         3.24780440223778      -1.65820834176566      -1.88283276367375
H         2.18818918411720       1.48698850857257       1.79445891556769
H         3.92541892035192       1.48579034720244       1.43572201221151
H         2.79670682819476       2.31927953627098       0.33586637311444
H         0.26624526603286      -0.23207859027537       1.26165245707352
H         0.22308667831564       1.45950233906340       0.74330841496717
H        -1.03194413997576      -0.88876491483620      -0.76138684497968
H        -1.06253391768086       0.79914528268003      -1.29350444778267
H        -2.28774637617012       1.43424896134952       0.79077020510996
H        -2.25485592916029      -0.25254119445480       1.32476135142600
H        -3.59170593955958       0.76758555516129      -1.23533598534702
H        -3.55876983776182      -0.91939158962746      -0.70140107720543
H        -4.84470512402760       1.39953313024101       0.83596687251829
H        -5.70675764033455       0.16034525783973      -0.08992696639123
H        -4.81158581775162      -0.28890854310318       1.37048954045923
P         9.03493057913378      -0.22285478157060       1.12861836988048
F        10.23216799933998       0.78099379414388       1.67698580292961
F         8.48065233974206       0.92430429775132       0.02845677906753
F         9.50033535546545      -1.41932426413206       2.20629962071670
C        10.34092756249668      -0.80159235294948      -0.20270211964940
C         7.87154327777607       0.62235981490753       2.53408714244022
C         7.50657467802885      -1.46910819689242       0.57831103227718
C        11.52457337767805      -1.69211880286801       0.26069873101510
C         6.41654198622375       1.10389835436855       2.24074975835716
C         7.52662060853401      -2.74388465704419      -0.31140563631475
F        10.88192792513667       0.29281005659841      -0.76068856321757
F         9.71656782029591      -1.47270981075552      -1.19385221447318
F         8.48139557339257       1.74196475050141       2.96249517544113
F         7.74963905684625      -0.18543824953484       3.60273927397427
F         6.53745341201825      -0.69733195154523      -0.00454791816116
F         6.96955315686194      -1.88933018423829       1.74734499466140
F        12.39446450951850      -1.85522835605356      -0.74004847611303
F        11.10055556504100      -2.89962675392425       0.62683589188603
F        12.17524258927805      -1.14699033611911       1.28131805384634
F         6.02194612738008       1.98218950755930       3.16666751272424
F         6.25060181302660       1.70290161806797       1.05733080915547
F         5.52034157242019       0.10009252905387       2.28380457762083
F         7.46429130284201      -2.43677996830682      -1.60597414408331
F         6.41991261272069      -3.47211845871985      -0.05040260415910
F         8.57146565424243      -3.52349733933307      -0.09506046134090
