22
C8H12ClN optimized with DFTB in AMS.
N        -0.59268896235993       0.03574538011899      -0.40414164178704
C         0.83152967923059       0.01516336360150      -0.75686118625300
C         1.67270986676779      -0.13770155859380       0.51531576730536
C         3.13728946398270      -0.35270928341921       0.14723749110391
C        -1.23731901588036       1.20790730163324      -0.29221578867833
C        -1.20910322597855      -1.12968397030355      -0.15573027590736
C        -2.56392585490657       1.24272614544754       0.07935478260665
C        -2.53948392294751      -1.14203696799555       0.21643985902994
C        -3.23297065194863       0.05152371015404       0.34040130155329
H         0.99994155408856      -0.85133561931685      -1.40540079987465
H         1.07209645918464       0.94037957918363      -1.28542497487341
H         1.31022502987041      -1.00705508633565       1.06990952464793
H         1.55371145619619       0.75213301673044       1.14244649020190
H         3.24121596793541      -1.27828629537782      -0.41885283790444
H         3.73411128404561      -0.42881544228199       1.05559001676179
H         3.51381964475012       0.47719087917718      -0.45242302810851
H        -0.67280275035430       2.10698226894361      -0.50899112616802
H        -0.59396727285493      -2.03625985978355      -0.29166626545555
H        -3.06816039196692       2.19709907400153       0.16240557144576
H        -3.02290887450195      -2.09177605582936       0.40627434396282
H        -4.27601305456256       0.06212775539394       0.63295802754592
Cl        1.02579659021017      -3.12271988744831      -0.84284397845496
