58
C18H34F3NO2 optimized with ForceField in AMS.
N        -0.02077243652842       1.97888660520259       0.00797678498124
C        -0.70013204239058       2.88218283630603      -0.97133236138660
C         0.63337007301570       2.89656446527006       0.99130690226206
C        -1.03303324484443       1.13171074432928       0.71839858613586
C         1.01371873362323       1.16216710169318      -0.70660184037647
C        -0.22160066483326       4.29771220080485      -0.72002369711740
C         0.12078474143506       4.30157649478493       0.74199450032756
C        -1.77643253294604       0.11925902627890      -0.18569199624338
C         1.78262162575267       0.16326581170298       0.19146968612244
C        -2.87497880607132      -0.60181497231017       0.60534380443824
C         2.89137036164459      -0.53466606692213      -0.60659493702968
C        -3.62742304407749      -1.60553511422746      -0.27583106557946
C         3.66158152164305      -1.53248397408639       0.26633122941762
C        -4.69094716409205      -2.35660765653263       0.53445893470259
C         4.73366231338513      -2.26377041918727      -0.55101158664603
C        -5.44408448339812      -3.35740112084076      -0.33666283845590
C         5.50202458472493      -3.25999020945712       0.31226303855368
H        -0.50965312531400       2.60527282947943      -2.03346376081869
H        -1.80686133662813       2.88982317177604      -0.84196213170049
H         0.44722648662970       2.61194542845884       2.05215505074312
H         1.73990190125976       2.93134238273666       0.86501339418798
H        -0.55660411429333       0.57118421134480       1.55289475981391
H        -1.79077628951604       1.78990665666390       1.20450585985111
H         0.55169455236173       0.59420831378772      -1.54422712988225
H         1.75476337680893       1.84219721979141      -1.18843493101737
H         0.69229203736906       4.49574744790586      -1.32260017910922
H        -1.00460252435005       5.05024101424247      -0.95795192919783
H        -0.79701264045968       4.48128984156306       1.34504978379865
H         0.88569557245012       5.07244609669030       0.98024337264551
H        -2.23591978335262       0.63487805194793      -1.05542676938523
H        -1.06781567791472      -0.64529290939107      -0.56721483692597
H         2.23597719517545       0.68680112004261       1.05970966617677
H         1.09215159154125      -0.61663858173861       0.57487350690179
H        -2.41165248710285      -1.13906212749900       1.46268834772620
H        -3.59523901277802       0.14662343088952       1.00421764285581
H         3.59834240678447       0.22803054072461      -1.00214235864467
H         2.43506760439332      -1.07399788382238      -1.46640628119182
H        -4.11761371373946      -1.06246674335259      -1.11411798252311
H        -2.90530343019616      -2.33724644163833      -0.70117222780497
H         4.14614166209897      -0.98733372873579       1.10649440854928
H         2.95166062749247      -2.27736230509357       0.68937336100068
H        -5.41879707815587      -1.63233987803124       0.96135447680444
H        -4.20614229103074      -2.90428035847689       1.37212107043318
H         4.25477144467404      -2.81272781875873      -1.39124618108337
H         5.45074207809713      -1.52700999351915      -0.97469638381085
H        -5.96549750785258      -2.83208343382917      -1.16511297920179
H        -6.20029772081095      -3.88880823748120       0.27904607611148
H        -4.74121175041930      -4.10630072418888      -0.76026014714595
H         4.81022930383678      -4.02125790709270       0.73207638906749
H         6.26444832549990      -3.77710720338621      -0.30797379709253
H         6.01757036868564      -2.73313872090055       1.14340129568111
C         1.68302697796243       6.52652807834263      -4.07349341361748
O         1.42859562159503       5.59138280074614      -4.81604518535607
O         2.82380234900935       6.95692909777731      -4.01498425871436
C         0.60497828632206       7.15055961052779      -3.23940843805001
F         0.96176129726581       7.09553609405839      -1.90508220970285
F        -0.59414103204939       6.48183613125135      -3.41495477625965
F         0.44219870220791       8.47205747897843      -3.61012511021835
