54
C14H20F18NP optimized with DFTB in AMS.
N         1.16475016253109       0.13128773100352       0.05552419623765
C        -0.05507882956709       0.64809555607760       0.76517434748256
C         1.36383880621968       0.82049527504771      -1.27542343970313
C         0.99760561011569      -1.34651382564226      -0.19447758096004
C         2.37259388857050       0.39998464935170       0.91767402322534
C        -1.35440016907846       0.54348305357510      -0.01993791434472
C         1.34094562950826       2.34022389854107      -1.23116354107781
C         2.23491715842710      -2.05819139010115      -0.72156008352767
C         2.37919600822883      -0.27971872822238       2.27622383076461
H        -0.14924003633921       0.07716824930822       1.69121646245023
H         0.14453915506084       1.69051617355809       1.02242136175241
H         2.33068261481946       0.48889573053651      -1.65301281289667
H         0.58413567417825       0.45308895341923      -1.94679333688912
H         0.68030763397301      -1.79802639563060       0.74872979680737
H         0.18453339746150      -1.45254385249523      -0.91604934984291
H         3.23756980175939       0.07613334653603       0.34424818204988
H         2.43723645276686       1.48007934849304       1.05047910704329
H        -2.14373592633903       0.97422106888919       0.59616372455028
H        -1.31432709033803       1.09768885749206      -0.95515111818812
H        -1.61680039455055      -0.49148069159913      -0.23183704592755
H         1.59563064879978       2.69017535369091      -2.23149586379339
H         0.35940090251534       2.73261224977153      -0.97024077956483
H         2.08302667533170       2.73845779050499      -0.54379227479575
H         1.94890214923443      -3.08790120471049      -0.93659966073306
H         2.60483863109704      -1.60794257570192      -1.63915221278052
H         3.03947396284142      -2.07489917962368       0.00964951287571
H         3.34096535517716      -0.04671294628988       2.73356012491420
H         1.59212491784638       0.09245730621444       2.93055038975487
H         2.29620784412703      -1.36204807659974       2.19757109202291
P         5.80788193900759       1.54563076428842      -1.31629387302364
F         5.56583885741172       2.73036799525857      -2.47207349104921
F         4.12234969891893       1.60769284736459      -0.95277622513588
F         7.43652174572239       1.44198659139798      -1.64230383785948
C         5.44238259378711       0.22978033931431      -2.72702315075621
C         6.14141845338318       3.02745632862533      -0.07803145203182
C         5.91735414461846       0.11697721395253       0.09864083100947
C         5.56803094812232       0.68221915643991      -4.20672692328735
C         4.91156175514761       3.81464332479870       0.45001724597118
C         7.25212237411684      -0.54062821900693       0.53572659864308
F         4.17997049865394      -0.26915922694148      -2.62413422974967
F         6.27954944334514      -0.80742252308409      -2.56805832767154
F         6.92179840515981       3.92278359964217      -0.70100078284385
F         6.81973900990843       2.60676948499738       1.00503296784843
F         5.10925530239047      -0.91215211097452      -0.27342824978707
F         5.34861944018985       0.61050156452113       1.22732071027592
F         5.51947257464762      -0.38648915033005      -5.00878306044590
F         6.70466023714493       1.31898821476225      -4.44463053778697
F         4.54958639486898       1.47498622601546      -4.54149608619560
F         4.14040495664672       4.25611388425448      -0.54166796128736
F         4.14430345644318       3.05145435420741       1.24388422454673
F         5.29523960978430       4.86791339429927       1.16768750047506
F         7.78682808730156      -1.24596637911650      -0.45366364898971
F         7.02434126825277      -1.37738758722826       1.55633723171500
F         8.13976648274772       0.35892127254748       0.93810973751037
