30
C8H20ClN optimized with ForceField in AMS.
N        -0.01774330221942       0.00426137393723       0.00711731671652
C        -0.85593606922253      -0.24286587224729       1.23224829287887
C        -0.87441849034160       0.27518730447881      -1.19998098705651
C         0.80992449155595      -1.22352297259455      -0.26091597262731
C         0.84936776639312       1.20881826916752       0.25718476429440
C        -1.92824859693815      -1.34327874117750       1.10345381820499
C        -1.91805820912386       1.39950955209252      -1.04591618850720
C         1.84783042092317      -1.09988853017010      -1.39348567116690
C         1.92428029737646       1.04953467571974       1.35108570146930
H        -0.21314042536389      -0.54525985568892       2.08671811558627
H        -1.36304462116665       0.69110902943698       1.56032106652604
H        -0.24164960600320       0.56681374890716      -2.06585143528868
H        -1.40836495825271      -0.64597362771959      -1.52165056642532
H         1.34357736312326      -1.55036876157850       0.65850993991376
H         0.15717232179841      -2.07757954403048      -0.54226622606125
H         1.35905096177601       1.53173830936162      -0.67716995381845
H         0.22717512825926       2.07574193735936       0.56785440058980
H        -2.48856442181207      -1.40755138548468       2.06000035548664
H        -2.66730112586815      -1.12072468239221       0.30946869585107
H        -1.47469354611503      -2.33878255104642       0.92811979057847
H        -2.49118291087007       1.48499276223952      -1.99319929452132
H        -2.65049232847659       1.18711593964292      -0.24307946643243
H        -1.43821142514193       2.38222525725921      -0.86805101136609
H         2.40841223139212      -2.05557813002416      -1.46704939041666
H         1.36432987903007      -0.93281520254143      -2.37643369032607
H         2.58972840733968      -0.30177183158332      -1.19811922701211
H         2.50168846761604       1.99534643826101       1.42317046322945
H         1.47237525601244       0.86989650599638       2.34657190578541
H         2.64919385979970       0.24631140103172       1.11522532250254
Cl        5.47134237212016      -1.26396130101255      -1.97525358908725
