46
C12H26F6NP optimized with ForceField in AMS.
N         0.98198421337322      -0.30355909511755      -0.00179625235445
C         2.06257522303231       0.07405237175975      -0.96573057634837
C         1.64165844447487      -1.22390110054879       0.97351614442833
C         0.48573067967488       0.91244520762604       0.72303157077012
C        -0.11163231865714      -1.02292635291027      -0.73295687812755
C         3.28814441808296      -0.77046124534502      -0.66569222836340
C         3.14091082870061      -1.10552155854692       0.79140008499979
C        -0.26425510553883       1.93113628480928      -0.16947552961649
C        -1.30079938017171      -1.45503919225776       0.15842105641784
C        -0.57532734069353       3.21456277452231       0.61077036117438
C        -2.29147969558421      -2.31706808639472      -0.63400128940097
C        -1.31484469466959       4.22493814884274      -0.26109628666248
C        -3.47182056144116      -2.74098790122286       0.23493855620992
H         2.37187522151277       1.13920871443422      -0.85908288928236
H         1.76839708612015      -0.05943791249489      -2.03209900238964
H         1.37897214593836      -2.29126147417109       0.78678486419881
H         1.37017301392320      -1.01349489343504       2.03323215621443
H        -0.18909027217249       0.62175536381734       1.55860561147484
H         1.34536030904120       1.43179646514298       1.20716892978338
H        -0.50455139202462      -0.39489167270566      -1.56304943613770
H         0.30659406619848      -1.93129967085769      -1.22605818738049
H         3.26201470063605      -1.70313270186932      -1.27199551661788
H         4.23362489149286      -0.22066319148846      -0.86433130257191
H         3.53298958637910      -0.27081897912786       1.41365051079710
H         3.66778622732970      -2.04802022804655       1.05210342840920
H         0.34171590181301       2.18968718160897      -1.06272680003829
H        -1.22566608350109       1.49789435138597      -0.51590278664885
H        -0.93978522375263      -2.03401945559872       1.03417930022004
H        -1.84290093686074      -0.56109916863277       0.53083270792086
H         0.37029904702825       3.67634681101849       0.96997113316741
H        -1.20662576386404       2.97163163687020       1.49352281373348
H        -2.67502899948914      -1.74140806300081      -1.50474162913216
H        -1.77933650886660      -3.22886365299191      -1.01194342892749
H        -2.27188486741285       3.79395828153359      -0.62561553309479
H        -0.68754250015109       4.51476301390411      -1.13112850748939
H        -1.53904422694168       5.13502226062016       0.33424858984923
H        -4.01083446710270      -1.84785115513512       0.61750366944424
H        -3.11868962496809      -3.35225460846088       1.09289024177366
H        -4.17731444160315      -3.34981615423666      -0.36885465888737
P         5.90610628409554      -4.48748349562949      -0.28201688375847
F         6.16024869999468      -3.41822808784130       1.03763353804783
F         5.73966769846645      -5.76476750457743       0.85387232195589
F         4.19340367656295      -4.36389152791746      -0.26376043544431
F         5.70804975534441      -5.41844142777334      -1.71144968880643
F         6.08440734704540      -3.04569645499497      -1.19796620343761
F         7.56560624610566      -4.90910334566481      -0.41663771277194
