23
C7H13ClN2 optimized with DFTB in AMS.
N         1.16434251550432       0.20989953613532      -0.55007643745019
N        -0.97796910904717       0.39806942632666      -0.47608684113884
C         0.02497634120998      -0.39832938714615      -0.86174991170031
C         2.50541070116007      -0.33537464456996      -0.75556221793484
C        -2.39663205962054       0.08431387054956      -0.57871024576882
C         0.89797886862121       1.40096197016274       0.06239139262589
C        -0.45378573224830       1.52211419158102       0.11208587375389
C         2.96685693616205      -1.04878054682267       0.50962725947661
C        -2.89137730261210      -0.51916528847000       0.73244273477945
H        -0.07888386821518      -1.34741056544382      -1.35920703128725
H         2.46671767550982      -1.01492125197632      -1.61100651111249
H         3.17088907724769       0.50846225585087      -0.96159887156292
H        -2.93243729728513       1.00984555051852      -0.80583716594995
H        -2.53139711596207      -0.61877027597358      -1.40504702976480
H         1.72190270436184       2.03014384739884       0.39973717876359
H        -1.08206274411379       2.30367134646909       0.50087425272070
H         3.07337134656319      -0.32295906291290       1.31484367603496
H         3.93720640994604      -1.50493016762302       0.32082217989537
H         2.25572637758997      -1.82188068909729       0.80199108349621
H        -2.34657014090387      -1.43570883479912       0.95611996330172
H        -3.95225152637868      -0.74880546651821       0.64611762415088
H        -2.74652223886301       0.18444851794784       1.55119972025841
Cl        3.80378460357361       2.18082293351257       0.66550686841272
