30
C8H15BF4N2 optimized with ADF in AMS.
N        -0.48826556494916      -0.86938332166745       0.51989427655079
N         1.66736090296088      -0.73056491346155       0.32382847827980
C        -1.83814680920499      -0.75530976185687       1.09687913030498
C        -2.72371339244965       0.17674227423885       0.27644968169452
C         0.64423769895309      -0.58305253384612       1.17299332135217
C        -0.18147510170811      -1.19745611254738      -0.78594559154377
C         3.05951984170308      -0.35536623967888       0.62287306766362
C         1.17400931221600      -1.10620063703773      -0.90987999310426
C        -2.17446182237630       1.59583279553601       0.19102997130304
C         3.43487853995049       0.92695064277604      -0.10127128052827
H        -1.69367990563620      -0.34934915278959       2.10838746169736
H        -2.26222790749939      -1.76994622341550       1.15914416026880
H        -2.88194076900396      -0.24775974528630      -0.73116728771314
H        -3.71273946687184       0.17246624492481       0.76605375041802
H         0.72036512682419      -0.22710549771656       2.19650131249630
H        -0.94167525926316      -1.46230306421461      -1.50860692320812
H         3.10776010018942      -0.20285555706024       1.70955350577631
H         3.69604998100626      -1.20890277880140       0.34259093832313
H         1.82034490916821      -1.27188618391581      -1.76241870358943
H        -1.18909466297976       1.62111981179171      -0.29645840837762
H        -2.03195747505987       2.02060068965142       1.19462893809373
H        -2.85929327917229       2.23968094810237      -0.37896465938003
H         3.39414960588750       0.80233175157095      -1.19390987127049
H         4.46014744496500       1.21112583785904       0.17589294919445
H         2.74622336163609       1.72738656982202       0.20581389991566
B         0.76963869581506       2.14236196620866       2.65660131032812
F         0.79122600138431       2.22647518296165       1.22495571203977
F        -0.41698963425740       1.41461847281708       3.04191954762208
F         0.79697166511972       3.40434715634624       3.23526151422117
F         1.89812349735280       1.34062922048914       3.05970285067131
