53
C17H29F3N2O2 optimized with ADF in AMS.
N         3.06061291162479       1.05655202354920      -0.65733311860060
N         2.96744792252802      -1.11111329368805      -0.58419306422325
C         1.55109636926367       3.01485145230075      -0.52325399639168
C         2.94529168084003       2.46022081784641      -0.24382052228183
C         1.46851613104437      -2.66294948438338       0.62330292909696
C         2.82418183774613      -2.47504557944058      -0.04725312757499
C         0.44598977759462       2.27775396116916       0.22964198895478
C         0.29365717837282      -2.37001913258091      -0.30753695606641
C        -0.95150491940731       2.81981455496631      -0.05864225798080
C        -1.06416815910728      -2.44355820891742       0.38523951977243
C         2.77344200955459       0.00787392629432       0.12345764584747
C         3.45361298736108       0.59560120102035      -1.89445395795173
C         3.39850132988846      -0.76876479686686      -1.84591438164057
C        -2.04892825696040       2.04111113689346       0.66525333535095
C        -2.22656497810556      -2.10146879795393      -0.54504804480375
C        -3.44677181695178       2.56717366213547       0.35119282298557
C        -3.57911644944935      -2.14197248360319       0.16070372757391
H         1.56149235841002       4.08018345316052      -0.23226795400901
H         1.35357352507210       2.98475786783175      -1.61028588835331
H         1.41498016171105      -2.03111745727830       1.52787982195399
H         1.42540643979556      -3.70424397111050       0.98727173888301
H         3.72869245836719       3.01534292128968      -0.77995273741008
H         3.19626790563580       2.48968019199988       0.82624295893771
H         3.65774909198934      -2.63455567343308       0.65404031478111
H         2.93791427326604      -3.15397443727727      -0.90477001353782
H         0.64683760666342       2.32909002452538       1.31673705225837
H         0.46071470779574       1.20714036847497      -0.04502730045032
H         0.31654648387394      -3.07706521408167      -1.15877136246456
H         0.41087975282911      -1.36073963859239      -0.74442391641477
H        -1.00380950909624       3.88590838754561       0.23083599621061
H        -1.13832256862786       2.78402468098319      -1.14861305955254
H        -1.07140204975612      -1.74800949497657       1.24607017550986
H        -1.21393561277285      -3.45585881064574       0.80493843202081
H         2.50788124106637       0.05927624478861       1.17003625682992
H         3.75164660362251       1.26741804782343      -2.68955700571016
H         3.64365776394910      -1.51743834668568      -2.58831994156226
H        -1.98163825106694       0.97444014772175       0.38273717266171
H        -1.86752436048761       2.08552551194644       1.75502163061872
H        -2.22867773013052      -2.80366213371193      -1.39949708309876
H        -2.06147161664066      -1.09559400382190      -0.97464143603041
H        -3.54377794169617       3.62486508794264       0.64493892698212
H        -3.65849235694571       2.49973162091976      -0.72816927385171
H        -4.22266751035149       1.99699347518048       0.88372897192428
H        -4.40172823826111      -1.89541828630809      -0.52753545404749
H        -3.60835530193179      -1.42282199854033       0.99547839645620
H        -3.77510480756896      -3.14367490884670       0.57611740570232
C         6.57005280563087      -0.09878519805645       2.87281630321587
O         6.97358149406963       1.03425317419627       3.19069725598667
O         6.97659840149024      -1.26936854461479       2.99943407674736
C         5.21504275608710      -0.05140363465907       2.04332621567058
F         5.45244219034941      -0.13929866045388       0.67734724537332
F         4.44874732953109       1.10208185522354       2.20135429664902
F         4.31557450419150      -1.08225807560069       2.31960873455318
