34
C10H22ClN optimized with DFTB in AMS.
N        -0.08578628758855      -0.01103655569755       0.01873237562525
C        -0.95932919293077       0.39479514575913      -1.13848837829657
C        -0.63613353999380      -1.27319715430218       0.62818995524528
C         1.26897144423965      -0.31406376905443      -0.57297613511654
C        -2.42608856434001       0.54279072750237      -0.76438229110756
C        -2.10430711943781      -1.16489230725886       1.01753178981106
C        -0.00936615964631       1.05631475694985       1.06910919209590
C        -2.95243659977651      -0.76972842534682      -0.18807096357897
C         2.33724170882289      -0.74616664763113       0.42716009874418
C         0.64603581839734       2.35532667706804       0.62217021416954
C         3.63629942908994      -1.02378983266117      -0.32980227247769
H        -0.85690403323960      -0.40347378932417      -1.88262538068925
H        -0.56031503914819       1.32404796667590      -1.54808307284187
H        -0.02932396525624      -1.51039574713599       1.50332960958124
H        -0.51642393049339      -2.05308516824366      -0.13293617494965
H         1.59073020271705       0.57970821477574      -1.11146735199864
H         1.10023118284994      -1.11766216180539      -1.29942545816238
H        -2.96796104145534       0.79003187082383      -1.68070853410407
H        -2.57898339563877       1.36275515927691      -0.05525803530785
H        -2.24682115182816      -0.45106795936698       1.83537465595914
H        -2.41062184874573      -2.14982679953194       1.37945648402699
H        -1.02930824542081       1.26226370999245       1.39834246284237
H         0.54032094390952       0.63690613197612       1.91487393648485
H        -3.99729956947439      -0.65701970359524       0.10978921764986
H        -2.88856955472513      -1.55184791112145      -0.95000868723824
H         2.51618418825863       0.02861670894869       1.17867333612811
H         2.02775844783483      -1.65718752141652       0.94546536643596
H         0.59314024330910       3.05440202791061       1.45667881648316
H         1.69337470571757       2.21363124601114       0.36366190033519
H         0.12844430231403       2.79872400982070      -0.22614689536485
H         4.40375032776700      -1.35567373014179       0.36845107917159
H         3.48073962052587      -1.80242707393327      -1.07624159327265
H         3.98791813225647      -0.12267458270038      -0.83313342217513
Cl       -0.34131466327027      -2.54847045052256      -2.31491530120777
