30
C8H20ClN optimized with ADF in AMS.
N        -0.03394144465800      -0.02986612890500       0.09033094305075
C        -0.88298684709033      -0.08540384359942       1.35223112730719
C        -0.90816001286346       0.13902671960549      -1.15208202378777
C         0.72394657840989      -1.35018122118170      -0.04212905465341
C         0.90689441284735       1.15457676838462       0.19338162198295
C        -1.98268006581756      -1.12685159851548       1.35807043508739
C        -1.89651665283782       1.28490944402375      -1.09217800126761
C         1.69934348233723      -1.40702917543094      -1.19863605701795
C         1.96035898082636       1.06806466846005       1.28265495875425
H        -0.17672505819549      -0.27146864181940       2.17362474163502
H        -1.29283041729728       0.92819299312186       1.48212258736169
H        -0.20107897720086       0.29160657225464      -1.97949310173235
H        -1.39754858967877      -0.85433445445786      -1.31361089269961
H         1.21759979723939      -1.51528796437998       0.92690277323055
H        -0.06179767097296      -2.12168895508550      -0.23138938451474
H         1.38337733130198       1.25005571721626      -0.79265480869222
H         0.27057384851850       2.03803861262965       0.34478441453099
H        -2.49808712389920      -1.04919315066889       2.32929486097571
H        -2.71681363489967      -0.97763788816418       0.55628826574913
H        -1.60515761918884      -2.15011507200558       1.22949186912708
H        -2.42189229948691       1.29852382007833      -2.06009520263341
H        -2.66301177180281       1.14629390246609      -0.31685442413855
H        -1.42664763824997       2.27220419816636      -0.96377574575852
H         2.19930829927872      -2.38654310163108      -1.14086772439796
H         1.16758809751141      -1.39498451625437      -2.16074889062391
H         2.47984002575353      -0.63039433567324      -1.18200798498067
H         2.55399564846392       1.99470284273554       1.24847611481308
H         1.52662360907764       0.99652651172619       2.28976258972366
H         2.64939055374463       0.22621156125032       1.12930216943504
Cl       -1.66956157037063      -3.06266422854655      -1.42854570476579
