29
C7H14F3NO3S optimized with ADF in AMS.
N         1.00426984889164      -0.17683664264388       0.06833135264566
C         0.13127671728149       0.81068192654230       0.83221676809190
C         0.40844040843017      -1.51435370851940       0.47271486230475
C        -1.28082922708712       0.22287350624106       0.77882147970304
C        -1.09845909749971      -1.28748395099857       0.46660777345707
C         2.43982925936666      -0.06809762112750       0.47363638801606
C         0.86353782402332       0.02652807532509      -1.40263144582118
H         0.24581949683773       1.80200469168462       0.37216996158671
H         0.52899660468520       0.81696348202912       1.85921502259517
H         0.74277601281622      -1.69910892594543       1.50201761421973
H         0.78083037247584      -2.28956464149639      -0.21102990710385
H        -1.90446395002589       0.71530803791597       0.01782211640103
H        -1.75638384026743       0.36116339481829       1.75886229958648
H        -1.55371651020958      -1.91121926850657       1.24698637898323
H        -1.55266485445774      -1.55621112564274      -0.49923003852140
H         2.82434740012335       0.90149722189103       0.13047489229775
H         2.48587494814913      -0.13002330535846       1.57300655006421
H         2.99741216341853      -0.88608074334423      -0.00012780505905
H        -0.19352805585596      -0.05964722771954      -1.67944449730575
H         1.23902570878742       1.02583500731012      -1.65726113391159
H         1.45330338986724      -0.74041745152108      -1.92173623705883
S         0.96672838777004      -0.70847530026170       4.21705326986702
O         1.80683209138283       0.26907428488973       3.47307457956626
O        -0.16806005313536      -1.22300118239531       3.41535379461873
O         0.68979546172559      -0.38329942161098       5.61191342403329
C         2.10482438436107      -2.19717062990623       4.31410489537876
F         3.23396031819341      -1.92067492053723       5.01077368193852
F         2.49301053174974      -2.59784215481490       3.05206926276045
F         1.48933585000215      -3.25381142269720       4.89963432826582
