23
C7H10BF4N optimized with ADF in AMS.
N         0.30214190622365      -0.22923748671240       0.10452359591620
C         1.78742867557757      -0.26162054511905      -0.02826950939700
C        -0.41664913438191       0.68747486580628      -0.58027870598266
C        -0.29107884534890      -1.10573222074661       0.94581652036949
C         2.44494348762786       0.38193539376491       1.17905670281804
C        -1.78937159118171       0.75243851756131      -0.44614750382502
C        -1.66879389506076      -1.07603033389483       1.10420982586587
C        -2.42997666286726      -0.14483986058521       0.40763867250074
H         2.06863064347445      -1.32270948009034      -0.11479938003687
H         2.02520413878367       0.26118517564106      -0.96607379908179
H         0.14947384370537       1.35040836246905      -1.23188722730373
H         0.37465747740457      -1.80238689933701       1.47253453331379
H         2.18163823255729       1.44733393651368       1.26420674171644
H         3.53236441320359       0.27382235352932       1.06827529020324
H         2.16712803699595      -0.16024173905161       2.09403570418076
H        -2.34573088882193       1.49950350676582      -1.01188041321522
H        -2.12731319897809      -1.79909306619073       1.77875499786126
H        -3.51476838339817      -0.11449530374947       0.52436339760088
B         2.49143186128408      -3.21536496119588       1.59045402895640
F         3.61142800126019      -2.44969421661112       1.17513048414695
F         2.85505579860432      -4.45782376109287       2.09272169675274
F         1.59195611315814      -3.34765595290395       0.46462385012560
F         1.76135444767802      -2.45201210077034       2.59177498741389
