31
C9H16F3NO2 optimized with ADF in AMS.
N         0.65526785525106      -0.03491990695476       0.44460945820244
C         0.22719466396335       1.14283065624857      -0.40647369500224
C        -0.24673245678476      -1.23640123294009       0.16232689353285
C        -1.24348124452341       1.48742987070903      -0.23933151044953
C        -1.72300782279045      -0.90916362541031       0.27238055807854
C        -2.12391783312916       0.28702295424392      -0.58329455746403
C         0.64127201964470       0.33098741631762       1.90346994226816
C         2.05420522282301      -0.40849591037978       0.08172406152768
H         0.43439325515128       0.85505574369367      -1.45059556454072
H         0.88612499772718       1.98104271151445      -0.13214394896305
H         0.01816524991188      -2.00199626280136       0.90980288354910
H         0.01842095542971      -1.55682695876215      -0.85931274439252
H        -1.45515595643185       2.34309908983272      -0.90191018497525
H        -1.44657479983111       1.82633582500713       0.78999252585321
H        -1.97944813997309      -0.75585143282468       1.32961081450524
H        -2.26695351852526      -1.82021478803800      -0.02671621594988
H        -3.18365861702035       0.53358712394803      -0.41314759527128
H        -2.01239767452129       0.04705255542575      -1.65773101612191
H        -0.36727920182699       0.62055452513219       2.20603530302171
H         0.93842546763446      -0.53671535505962       2.50896302271980
H         1.33513439139557       1.17024320430874       2.04602876806740
H         2.09129580256614      -0.67068948534833      -0.98330679052205
H         2.71224566551036       0.44647456141011       0.28465509845162
H         2.35278246907524      -1.26658435970234       0.69677101043118
C        -0.85554554931803      -1.34454197836104       3.85537900582120
O         0.05207288271700      -0.80420593559676       4.52222816452787
O        -0.81204238052567      -2.18802012299096       2.92256096082575
C        -2.28062292771551      -0.74555034276632       4.13661608810003
F        -2.36574969323271       0.51036926327432       3.51861887213692
F        -2.54834723966413      -0.54159769222478       5.45211766335802
F        -3.31721854118721      -1.47082622500495       3.61976429937374
