41
C11H22F3NO3S optimized with ForceField in AMS.
N        -0.51025121203246       0.01206555840376      -0.00624362687527
C        -1.42874813266882      -0.55435567292286      -1.04198385817441
C        -1.41242872126999       0.62140373863807       1.01923703097312
C        -2.83364711875697      -0.05941176234155      -0.75359363188269
C        -2.83106876594081       0.16960265998199       0.73145382476157
C         0.35198262528300       1.06800388052897      -0.63047506469362
C         0.29236886300921      -1.08311417223980       0.62978461352555
C         1.36348749118379       1.72698543294664       0.33753205816423
C         1.28747082605293      -1.79106349230741      -0.32063632217102
C         2.08232045106904       2.89286993994791      -0.33632953314019
C         1.94080186903131      -2.98340147665688       0.37441295173547
H        -1.13966423690571      -0.28374953811480      -2.08358346891878
H        -1.46688521021195      -1.66748443495038      -1.00940121965047
H        -1.13560138410908       0.35487001638777       2.06525712356275
H        -1.41361893742893       1.73478496257345       0.97191087322763
H        -3.01288840673321       0.90202457161798      -1.28434879908005
H        -3.60612246974574      -0.80144194971121      -1.05240740349927
H        -3.03945380444659      -0.78565662496516       1.26270359560382
H        -3.58023896558668       0.93528836690163       1.03001412572682
H         0.91571987515390       0.65192866704966      -1.49450646598837
H        -0.29516966572576       1.86805155919696      -1.06068839332761
H         0.86233744080830      -0.69354089110977       1.50206293776033
H        -0.39800161858996      -1.85126318002214       1.05062793451234
H         0.85353098813473       2.10803910401707       1.24645887891178
H         2.13323366788186       0.99307983925097       0.65326606124578
H         2.09453955046691      -1.09453700456287      -0.62817913540874
H         0.77578385549330      -2.15423977305655      -1.23601717964277
H         2.64479474826068       2.53584880567551      -1.22535063984397
H         1.35221657637090       3.66844252092487      -0.65162172607811
H         2.79957901455863       3.35119780531977       0.37690406134542
H         2.50069534530919      -2.64520573348367       1.27231813247795
H         1.17066639352403      -3.72345159921578       0.67911218767932
H         2.65172853527356      -3.48055305341776      -0.31707083010019
S         2.64760615984378      -5.21135278339969      -4.24045023477571
O         3.73189514321415      -6.16436466144990      -3.71573915577236
O         1.39277486616333      -5.65018497061947      -3.47102524284118
O         2.38537841463793      -5.72935447877522      -5.66250605962802
C         3.04797220491397      -3.44744250021965      -4.12560482182667
F         4.17019514212272      -3.18016424263992      -4.88533667880820
F         3.29613547157519      -3.11601902302781      -2.80884757291312
F         1.98378964101635      -2.70235709255275      -4.59532523847308
