44
C12H24F3NO3S optimized with DFTB in AMS.
N         0.35667380188916       0.49441047143244      -0.27897574308018
C        -0.62941368932835       1.26149335722762       0.54978680146329
C        -0.19171729155672       0.34583022792380      -1.67119789251618
C         0.62858880005085      -0.83765422936302       0.36588922637979
C         1.61896306708929       1.30913220781824      -0.41250887891836
C        -2.02216593706871       0.63895743865828       0.55879735464852
C        -1.55943741506475      -0.31754627960770      -1.70443233801684
C        -2.56103568435001       0.46980240607159      -0.86131736915352
C         1.68721040217885      -1.69803933737068      -0.32243311523915
C         2.40844099923920       1.53336967375195       0.87357206521052
C         1.81709322883096      -3.02160396450716       0.42904553979141
C         3.65241724149380       2.35730246001702       0.53198686487732
H        -0.23725163625558       1.32029255875648       1.56692108172075
H        -0.67763412892462       2.27063369808267       0.13128168854506
H        -0.25896598002224       1.35430875389154      -2.08762304600605
H         0.53790325314308      -0.21983477001860      -2.25318828836308
H         0.92540137340281      -0.63182795409330       1.39766334896783
H        -0.31747882653129      -1.38200616865324       0.39474891769386
H         2.24898736094473       0.79348366546578      -1.13564507057870
H         1.32532077128008       2.27042693533226      -0.84104717548185
H        -2.00854278364958      -0.32524515026614       1.07375650021317
H        -2.67421700491288       1.30769887723372       1.12715697174479
H        -1.88667331936323      -0.33813625937631      -2.74690428558636
H        -1.50088214192789      -1.35200727962973      -1.35634953757097
H        -3.51922035859905      -0.05387783988176      -0.83058593149346
H        -2.72450006855180       1.45476257006440      -1.31026661299972
H         1.40768712191758      -1.89812441727849      -1.35816509242558
H         2.65442409928137      -1.19337268309720      -0.32890249790028
H         1.80741923543979       2.06183351482333       1.61990673212104
H         2.72614360253236       0.57968771982018       1.30146392383745
H         2.57458277840511      -3.63563101096235      -0.05582414095230
H         0.87141749133378      -3.56598162642315       0.42459617331141
H         2.11747937426811      -2.85083646313221       1.46386120819908
H         4.25012477917557       2.50824530553663       1.43014405784795
H         3.36927550484324       3.33009163137321       0.12947295264943
H         4.25375217272274       1.83241011643645      -0.21018983889946
S         3.70151608959062      -0.23679482535740      -3.04280781519570
O         4.62648456513928      -0.94882336650814      -3.87826369589883
O         4.11171534661528      -0.05101950049817      -1.65474632799595
O         2.30013300681618      -0.62987125973033      -3.17470321438263
C         3.67525254237048       1.50489434287149      -3.68875514760693
F         3.32769576033221       1.56163365892740      -4.96657144053564
F         4.84252753979826       2.11593970141967      -3.53932685956060
F         2.76060291278196       2.20751556971894      -2.98920645196435
