40
C12H26ClN optimized with ForceField in AMS.
N        -1.90578542619910       0.12238556037045      -0.04996479765989
C        -2.11269029881213      -1.08675311139990      -0.90499403883488
C        -3.02661976363481       0.09262010638680       0.94049809521766
C        -0.59742200141113       0.02649592447353       0.67718131709537
C        -3.48317279833674      -1.65846273242615      -0.59768472173627
C        -3.72911686999726      -1.24680284811051       0.82617025897973
C        -1.99967375603700       1.35587652558794      -0.89768830725509
C         0.65319313060244       0.05044207180922      -0.23550487256045
C        -1.76959500667562       2.67419251859822      -0.13588231349465
C         1.92833466268082      -0.16868931358224       0.58879663359270
C         3.17497042283223      -0.17798121175801      -0.30424679430499
C         4.44932461258478      -0.32035869031868       0.53641304839446
C         5.69504689715687      -0.32635926004523      -0.34457718245992
H        -1.37416585867767      -1.89104179053543      -0.68349421626909
H        -2.02663521172793      -0.87665129817767      -1.99552376970449
H        -3.79189001551818       0.87642361115775       0.73697964024211
H        -2.69241021942167       0.25327130722581       1.99105005166414
H        -0.57439007572699      -0.91266887093055       1.27813847984961
H        -0.50320538990170       0.85001532517267       1.41914667793715
H        -3.50708927151994      -2.76420611158758      -0.71249031568034
H        -4.24475642164763      -1.19518677194695      -1.26334056784540
H        -4.81615811819609      -1.16631405289059       1.04568917792652
H        -3.25964718344305      -1.97999658114413       1.51895547510387
H        -1.27577062951566       1.31514316379734      -1.74051448968366
H        -3.00390583825333       1.41065556450483      -1.37856414335848
H         0.58570369212134      -0.74002861594169      -1.01177749208468
H         0.73780451378157       1.03300158062248      -0.74438960981444
H        -2.00165509124874       3.52740854234725      -0.80733206881226
H        -2.42243428482580       2.75192163213863       0.75699624419548
H        -0.71062105449698       2.77762585666041       0.17647875434017
H         1.85974507326471      -1.13889826666285       1.12840989853971
H         2.01903031403554       0.64693480870371       1.33981000609095
H         3.22206629814211       0.77060640184328      -0.88340361373719
H         3.10785867556273      -1.02681493094321      -1.02026778416479
H         4.52141548210315       0.52718375133843       1.25248680591273
H         4.41370674864190      -1.26828596170711       1.11664574398944
H         5.74964518968371       0.60627640065013      -0.94555970454743
H         6.60010288944602      -0.38634949390931       0.29481932724152
H         5.68164447312210      -1.20381708948760      -1.02558058914419
Cl        9.36816902806315      -1.65029393108348       0.83425965343927
