28
C8H14F3NO2 optimized with ADF in AMS.
N        -0.15876955375736      -0.43414951972763       0.17439797273557
C        -0.59570388457166       1.03109309230766       0.01581363281067
C        -1.29838323177451      -1.26818115977056      -0.45356589075948
C        -2.07590054507704       0.96840241061472      -0.31638128480997
C        -2.14826891399549      -0.26672949863210      -1.21906490898208
C        -0.00679115655729      -0.78434505277989       1.62791502949698
C         1.12622557238717      -0.67176532913599      -0.54122075307635
H        -0.01442103639743       1.44416541102014      -0.82251320856656
H        -0.34299350989066       1.57043238999194       0.93779044298184
H        -1.88842757480659      -1.64732038513185       0.39779005087319
H        -0.85039118703473      -2.07617184233907      -1.04504936786715
H        -2.41532010102864       1.89347275427656      -0.80451998945690
H        -2.66966136397406       0.78117015137432       0.59535445032746
H        -3.17490071915821      -0.64678747167678      -1.32224967508347
H        -1.74610443610744      -0.05498450854487      -2.22532528605229
H         0.79256170683801      -0.16223672573677       2.05212186027823
H        -0.98760615032108      -0.63514553738000       2.11304557319681
H         0.25146167009423      -1.84888665893124       1.69770677432622
H         0.97571710927099      -0.49508570490562      -1.61413926502485
H         1.88799631730820       0.01499172594055      -0.14761083432409
H         1.43689844370049      -1.71010217978703      -0.36885045543706
C        -3.71224212811087      -1.80045471475056       2.49205142995833
O        -4.82148612973966      -1.68800002923538       3.01823543726867
O        -2.94342453279085      -0.94379801301830       1.94610084181334
C        -3.11070060223441      -3.25379917242756       2.43542291659672
F        -3.05396523910027      -3.71426260822614       1.12755012760318
F        -3.80247750984680      -4.17824819558177       3.14169950976357
F        -1.80536857452405      -3.29678343260675       2.89866937000948
