44
C14H23F3N2O2 optimized with ADF in AMS.
N         0.61167924603425       2.07886532573491       2.04469074469886
N        -1.50216799892335       1.75927460621060       1.65977445803498
C         2.03261738918521       2.38061093262196       1.80046372403546
C         2.84452856227616       1.13784542167083       1.44838669026634
C        -2.76499447836071       1.59875172789945       0.92346318948874
C         2.39134171355074       0.44472655537591       0.16549115453652
C        -3.03972865161464       0.14377236374498       0.55686422217906
C        -0.31145453120409       1.95912084565364       1.08235787886834
C        -0.00634657315634       1.94391838952002       3.27126384584561
C        -1.33529813633006       1.74107003601009       3.03034533952229
C         3.30291449964119      -0.71063367480445      -0.24594613138786
C        -2.00365949112609      -0.46338790618099      -0.38743785978139
C         2.80937800106161      -1.40574677918428      -1.51197986556269
C        -2.34314850907371      -1.90106159503748      -0.77161737919155
H         2.40810716414099       2.86413389575266       2.71347406426831
H         2.05659971799212       3.12165560983168       0.98703604798352
H         3.89024488531677       1.47420350561175       1.33450573623907
H         2.82721443229338       0.42758631285178       2.29480675854993
H        -3.55799595459445       2.01289419237226       1.56280153403287
H        -2.68452552384054       2.23619487800208       0.02980842170680
H         2.34261917653022       1.18504090959076      -0.65429715378281
H         1.36889898458175       0.04613025409490       0.29692982596616
H        -4.03500491856209       0.11939915232711       0.07838464082227
H        -3.11577811274228      -0.46224192451468       1.47779564483928
H        -0.13060721459119       2.06209616701674       0.02079246313897
H         0.54170266897494       2.02838958850832       4.20130122192866
H        -2.16952426190280       1.61151581599520       3.70855500061363
H         3.36785571046574      -1.43983633941373       0.58253741196212
H         4.32614086207470      -0.32644105322426      -0.40631221161316
H        -1.92823952012533       0.16159550260670      -1.29556041196220
H        -1.00972621394262      -0.44784217258102       0.09288045110910
H         2.76891423227685      -0.69922094938002      -2.35629469785751
H         1.79527648928745      -1.81230325625991      -1.36658847220023
H         3.46923586253365      -2.23790794950934      -1.79875886062557
H        -2.39443210938802      -2.54659764293444       0.11949370484130
H        -1.58405196846157      -2.31805486332885      -1.44926733402658
H        -3.31706091293772      -1.95452546343010      -1.28309556311739
C         0.15222765281123       5.71895702494116      -1.85715026760456
O        -0.88389255336287       6.10145067384651      -2.42506747824640
O         1.32285079142451       6.12735432757374      -1.73751114684354
C        -0.05156714739529       4.37294094998889      -1.01921506833270
F         0.97079496099839       3.42928784750783      -1.19251751060711
F        -1.21089655735169       3.64546303130402      -1.27311758133827
F        -0.08169510086443       4.60768543031706       0.34993860050333
