51
C13H24F6N2O4S2 optimized with ForceField in AMS.
N         2.01263430610519       0.44465076957960       0.10683185262717
C         2.25818181932586      -0.85843427027624       0.78400321172907
C         3.12341288161866       0.59971751937847      -0.88161217240983
C         0.70447446811301       0.45153790611903      -0.61827555797326
C         3.68544678205642      -1.27167006773949       0.48479517793510
C         3.94708342574952      -0.67697330023341      -0.87213496703649
C         2.07438795179296       1.55583288404691       1.09060291372244
C        -0.54001611163608       0.24109071669381       0.27673059316912
C        -1.80158024041538       0.09705354738581      -0.58564831802878
C        -3.05124151006459      -0.09785992088870       0.28001282185966
C        -4.30727895525484      -0.21178352044212      -0.59196612250540
C        -5.55693370406017      -0.39635383118497       0.26273143256018
H         1.59684586870145      -1.66090643257408       0.38376413852244
H         2.09156073238632      -0.81552290885598       1.88482698573497
H         3.80309920347214       1.44747308587207      -0.62984775678851
H         2.76639174508481       0.79983126884125      -1.91840124052679
H         0.71110967424178      -0.34593636013282      -1.39769185020399
H         0.57851456939378       1.41941220227664      -1.15642541355042
H         3.80614958567945      -2.37689649665625       0.47748823481653
H         4.37479945071745      -0.82242510737095       1.23347318374916
H         5.02912370692150      -0.47727064308532      -1.03020283259597
H         3.57606475296306      -1.36874861252487      -1.66122089927758
H         1.32394589279180       1.43412786129655       1.89993333006067
H         3.07101045289548       1.59371942169085       1.58543864491337
H         1.90270699259210       2.53264193985591       0.58942823588218
H        -0.42739599534795      -0.67047430533851       0.90012761890064
H        -0.67626027813057       1.11399711248481       0.94869614332310
H        -1.68870835702890      -0.77751436961221      -1.26402721628467
H        -1.92552528142049       1.01086933243983      -1.20782931868951
H        -3.15995143803961       0.76716128810011       0.97077892767856
H        -2.93840313235130      -1.02347295920160       0.88661877087321
H        -4.42403342562967       0.70911787159470      -1.20412369688259
H        -4.20996141939228      -1.08033747340460      -1.27942200836964
H        -5.68957718833011       0.47126316800102       0.94353131869068
H        -6.44849321183034      -0.47181407483817      -0.39464096097424
H        -5.47836620417230      -1.32685048102519       0.86418330023995
N        -0.55850310747527       4.10209666047228       3.70644569955022
S         0.03802718294521       3.62342508228393       5.15545770021447
S        -0.31513080287318       5.60556882033432       3.10135103636523
C        -1.16752895785099       3.95331742869892       6.42513634917716
C         1.01286029758614       5.54957159514705       1.91757233340079
O         0.30745431745576       2.14574040774648       5.11346819504951
O         1.31099494240316       4.35859217960195       5.47183447314418
O         0.03121321177993       6.57390539074134       4.19832402509390
O        -1.56406542330314       6.06300664262971       2.40236209187894
F        -0.67919159223147       3.53133865243918       7.64654197331345
F        -2.33623315579601       3.27349104141984       6.14026752594820
F        -1.43037602940252       5.30861935994082       6.48208929519199
F         1.27742874347335       6.82536025709969       1.45911602707613
F         0.64566820159838       4.75002507482503       0.85308900234843
F         2.14807321939256       5.03134937654752       2.51154073995687
