44
C14H23F3N2O2 optimized with ADF in AMS.
N        -0.85286838196540       1.52307485164246      -0.68732488306700
N        -2.51853676571873       0.86228651294749       0.51954582202225
C         0.16341034924335       1.51496423722793      -1.75204013877431
C         1.40753004101376       0.74534724479304      -1.30973604024375
C        -3.64410583989396       0.05126005007042       1.00114811433573
C         1.10431191700767      -0.71276594705768      -0.97470227208322
C        -3.21911175155639      -0.85164203173733       2.15728587260369
C        -1.89157898458372       0.67184991857106      -0.65194097443110
C        -0.81116708173765       2.25713176969411       0.48076581432365
C        -1.86463127987453       1.84263696129099       1.24355141585199
C         2.34901923236632      -1.52504862821625      -0.62499292198086
C        -2.13844136085872      -1.85627785091404       1.76505278358139
C         2.00706757519377      -2.97613157493093      -0.29346912074815
C        -1.70502451132458      -2.73557199171791       2.93416298908926
H         0.38802401472859       2.56286392696988      -2.00279553074659
H        -0.30948206950440       1.02314971788253      -2.61761385196784
H         2.13353020732886       0.79759376135930      -2.14066889540023
H         1.87863149851324       1.25184376713446      -0.44628774650305
H        -4.45372722017940       0.73919749810067       1.29002106207451
H        -3.98251002689545      -0.54593835632245       0.14282207701209
H         0.57710540017403      -1.17699290983063      -1.82646482922812
H         0.40565436501081      -0.75860967617827      -0.11994319199096
H        -4.12120099634870      -1.38586583412942       2.50447333687201
H        -2.87701281335345      -0.23180286595069       3.00657217196986
H        -2.09588486686441      -0.07013909409422      -1.49023434652231
H        -0.05600185848352       3.01156508114129       0.66375405247842
H        -2.20655913474420       2.16502613949742       2.21937118650741
H         2.86872778479218      -1.05394039702796       0.23066098205339
H         3.05385629510475      -1.49294230774503      -1.47575549497358
H        -2.51245117329714      -2.48240638726546       0.94001310966080
H        -1.26041729595977      -1.31880391761302       1.36720987352513
H         1.51047636761178      -3.46398439264566      -1.14670841430579
H         1.31575825776942      -3.02914979295812       0.56333998732226
H         2.90670232238643      -3.55776645335923      -0.04095160035286
H        -1.27048505942890      -2.13345001612175       3.74845168565891
H        -0.94903307765169      -3.46807089145927       2.61446068910870
H        -2.55974987464462      -3.29556929280637       3.34649785037176
C        -1.91769995657195      -1.98807974051609      -3.28201803915182
O        -1.86611349608259      -0.76432905324551      -2.92609255457792
O        -1.58505156043770      -2.53705344432605      -4.33353345501589
C        -2.44449306800999      -2.93834219431665      -2.14728246628350
F        -2.83299277966410      -4.16063045559406      -2.57855592133236
F        -3.52495033755749      -2.40766086109722      -1.45583693476306
F        -1.45918263005183      -3.14351376014579      -1.19943316727894
