42
C12H21F3N2O3S optimized with ADF in AMS.
N        -0.75808051099136      -2.15834295252447       0.37317146359168
N         1.32942769772204      -2.19092983546900       0.97027494804120
C        -2.16663836219854      -1.75315741712090       0.25938664951600
C         2.59555961912644      -1.82975748899538       1.62481490879713
C        -2.40372860226426      -0.86918280250814      -0.95736754082877
C         3.47182121833974      -0.97054137574913       0.72450582812319
C         0.14463989918313      -1.60550441323380       1.19514111954490
C        -0.12698665455160      -3.09465576146026      -0.41535952360243
C         1.18455103426021      -3.11486442418814      -0.04085348845806
C        -1.62223922070795       0.44049575783557      -0.91532503903763
C         2.83798291955931       0.36807771909306       0.35969670698963
C        -1.90093119991919       1.29127119723022      -2.15043869061505
C         3.75755249722646       1.18788726131580      -0.53959089683419
H        -2.76312532232087      -2.67723890741137       0.22032099292201
H        -2.41864326707311      -1.22738248590714       1.19379149355502
H         2.32921892490642      -1.29939227268536       2.55268827952199
H         3.09111839301985      -2.77205414702124       1.90426683147965
H        -3.48940925251468      -0.67049292138262      -1.00677512470516
H        -2.12103072450252      -1.41857875291688      -1.87006618097497
H         3.69162303651599      -1.52045678983974      -0.20553513554758
H         4.42763603057183      -0.81387568673863       1.25634760740005
H        -0.04751092338400      -0.81767598001096       1.91065557169233
H        -0.64228850445035      -3.61651167654124      -1.21077866950531
H         2.02713988659506      -3.65731936026747      -0.44821774922030
H        -1.87426137516385       0.99972008558830       0.00697353092741
H        -0.54520689164995       0.20904517841535      -0.89223800571623
H         1.89973744588011       0.17902509366559      -0.18671240086561
H         2.59172414776751       0.93135891979124       1.28120000094377
H        -2.97102220436650       1.54421800498129      -2.22656605894736
H        -1.60497104067894       0.73594226672422      -3.05255024522013
H        -1.32381130692676       2.22625306943997      -2.12885376425282
H         3.95429687734637       0.63107038240429      -1.46805639238483
H         4.71866972395934       1.39647982661052      -0.04186313513030
H         3.29488916146292       2.14578711598213      -0.81563919255306
S         1.41676553161663      -1.36811729071591      -3.24835249844703
O         2.39372812088478      -1.52898216948208      -2.14684903304899
O         0.00490281124402      -1.48401203962999      -2.81622385671324
O         1.75657771452527      -2.02834915006172      -4.50891842886355
C         1.56616512283323       0.46047281447044      -3.65792250518437
F         2.82220017019605       0.77917308043335      -4.06946027218640
F         1.28840514020329       1.24111529541081      -2.56485161815086
F         0.69972182181843       0.82322800406940      -4.64120256195173
