31
C9H16F3NO2 optimized with ADF in AMS.
N         1.05820813004856      -0.00802580807226      -0.03653472791864
C         0.25181939713760       1.28560581690529      -0.12407983962910
C         0.12345895052328      -1.20208376178804      -0.15082180113756
C        -0.92062435142762       1.32985767805047       0.83725062852992
C        -1.01809119134996      -1.15475931277506       0.84882503924274
C        -1.83672102655255       0.12166754420406       0.66156615534990
C         1.84253587558917      -0.06784161002706       1.24687141527162
C         2.01715018597305      -0.04062474781644      -1.18014902696718
H        -0.08719520052064       1.34315031958946      -1.17260252015486
H         0.96685188803458       2.09959241282530       0.06867023367037
H         0.75402956179321      -2.09675131052802      -0.03127592963393
H        -0.26429230900721      -1.17901284903298      -1.18381955301809
H        -1.45627086336018       2.27496989227019       0.64637006739510
H        -0.55821481357035       1.35004900677473       1.87960674842016
H        -0.64067810780808      -1.19606529698936       1.88451574096177
H        -1.63351252170340      -2.05498400963848       0.68194161716828
H        -2.64421281100726       0.15979108173258       1.40876011445265
H        -2.30858353162852       0.12593503450367      -0.34073244985389
H         1.17134767635436       0.02270473534461       2.13265157590504
H         2.39190862169543      -1.01909112837304       1.25662783925420
H         2.54552997425102       0.77432622274123       1.24869663513802
H         1.46145586584742      -0.01075141095557      -2.12606224414169
H         2.67877131051280       0.83169826725562      -1.10182867398327
H         2.60988534524962      -0.96219700847655      -1.11626635346942
C         0.43075187526811       1.12863065665180       4.48518861641764
O         0.10219431065556       0.30704822190000       3.57173417351220
O        -0.02104497387516       1.32301717859984       5.61546431410280
C         1.64216539133181       2.05553301208840       4.06260397602597
F         1.95745752999340       3.01486340820292       4.96283940723681
F         1.39919775795953       2.71861581596815       2.85976431206183
F         2.79621093839243       1.32305056206451       3.84510333739060
