42
C10H18F6N2O4S2 optimized with ForceField in AMS.
N         0.02552715579765      -0.02295951042300       0.04532257951961
C         0.95261005341111      -0.88580536005410      -0.74941845387558
C         0.91877268897847       0.83498955168904       0.88392432933002
C         2.35967279024045      -0.34178484864979      -0.59054482858147
C         2.33600179549932       0.30618339525146       0.76407024112043
C        -0.83322424249151      -0.86944855118060       0.93536543907818
C        -0.78620729623682       0.82685702347868      -0.88552610072975
C        -1.82320633676203      -1.78070634691177       0.18676306071134
C        -1.80866536967878       1.74185887795327      -0.18625284507715
H         0.68445812901128      -0.94427703095835      -1.82818013853232
H         0.96960044828384      -1.93737067333870      -0.38050220071000
H         0.61826934366340       0.86926204625255       1.95616135342763
H         0.93777555473970       1.89286451522782       0.53375551187205
H         2.56203531776792       0.42500132130687      -1.37010518315281
H         3.12691451784685      -1.14475660452704      -0.64682606973610
H         2.52330067203063      -0.45737862208304       1.55135100821206
H         3.09250483756130       1.11770203855399       0.84164259352470
H        -0.19134268705468      -1.51567931778029       1.57759421376836
H        -1.41429812802910      -0.23674600831372       1.64211362045301
H        -0.11210566817323       1.47052942762653      -1.49650900324059
H        -1.33585879545724       0.19607015631830      -1.61878888225919
H        -2.27551011610563      -2.49601860916632       0.90544744947830
H        -2.64921275809436      -1.19131362672855      -0.26009305740535
H        -1.32182588803177      -2.36433659547213      -0.61127707704604
H        -2.23453146011021       2.44815453189154      -0.92963867583994
H        -2.65049099420014       1.15484184526114       0.23323470911452
H        -1.34182690933443       2.33566398046775       0.62500039964348
N         2.59683612160595      -0.82069299743018      -5.82931219394443
S         3.95497125562907      -1.19210288933804      -6.66769417304697
S         2.33063920716623       0.66096033113388      -5.18122181975895
C         5.17109164337714      -1.86087367827771      -5.55118802756667
C         1.33938392312033       1.62338177212228      -6.30295213572332
O         3.62518117197340      -2.23104567243664      -7.70181168363836
O         4.51294846943790       0.03094985799931      -7.34206090189829
O         3.63013802911055       1.37172435540925      -4.92022799655682
O         1.57362352298207       0.50567009818366      -3.89416023773114
F         6.30918410522245      -2.20040956268491      -6.25721930356308
F         4.66140012954214      -2.98819230917690      -4.93584578026953
F         5.49279306142222      -0.92194337238015      -4.59000777313197
F         1.11943942658656       2.87670228960127      -5.76452800476422
F         0.12649626047865       0.99193621246942      -6.50185982895181
F         1.99231967077336       1.75265997021391      -7.51366105102181
