25
C9H10F3NO2 optimized with ADF in AMS.
N         0.29969147822155       0.15021522055664      -0.21807047643382
C         1.64253697913656      -0.03980043844836      -0.80350860745214
C        -0.22508709874128       1.39995542146999      -0.12696169994079
C        -0.31439908346183      -0.91286359289156       0.36756013965577
C         2.73143004986891      -0.09080763117174       0.25754195715755
C        -1.52797941570665       1.55071222262890       0.37479061989937
C        -1.55914319452523      -0.78961633384730       0.92395698856381
C        -2.18940839428819       0.46758212247474       0.90387371183479
H         1.60369376752690      -0.96704948147618      -1.39632780917767
H         1.80615535136162       0.79465272998968      -1.50048934568311
H         0.26129205076632       2.16726587196528      -0.71920597970466
H         0.22949244917545      -1.85469989556608       0.32900558957813
H         2.83264798280080       0.88313843570052       0.75297878406458
H         3.68645077639292      -0.35341424012971      -0.22107414710311
H         2.50199007623912      -0.84454030531394       1.02454748293329
H        -1.97326793983273       2.54449719557934       0.36104386676969
H        -2.04133080817725      -1.66384306577594       1.35865021705568
H        -3.19454159919414       0.58146825599747       1.31204238034902
C         1.04553312391326       1.84720508677493       2.46275789732049
O         0.99241545286813       2.50579754977424       1.36870293210470
O         0.55713374085876       0.75159299833933       2.76651022880587
C         1.94409717045919       2.56978311381477       3.52652801599329
F         1.85771523008639       2.00586919782673       4.75882559877304
F         1.63473600957264       3.89264459973461       3.66252064609222
F         3.26453119417879       2.50122204579364       3.14288417234402
