49
C15H32ClN optimized with DFTB in AMS.
N        -1.04667495279341       0.84035614866671      -0.17516989321646
C        -1.57806373242773       1.84426383242775       0.80303460978927
C        -1.99153556482636       0.76065131220868      -1.34289833061582
C         0.26404514696791       1.34233766517882      -0.73029994268675
C        -0.88518485287153      -0.48733742532939       0.51599964678290
C        -3.00316806264419       1.54446917409722       1.25938407298349
C        -3.41178703710837       0.40778951784739      -0.93347152922368
C        -3.95361394886755       1.42696801334131       0.06803845397815
C         1.41815269015375       1.40068188529796       0.26314217907123
C        -0.25892549700580      -1.59516420883375      -0.32620821680896
C         2.67094207873108       1.88849088119633      -0.47666887220969
C        -0.18058748486111      -2.87769993092455       0.50838587412229
C         3.87418699598320       1.96437333722056       0.46743635841428
C         0.44667465671715      -4.01069953452445      -0.30999211930402
C         5.12764995582337       2.42904128388323      -0.27185681547654
C         0.53287440424707      -5.30138122131142       0.50175597751953
H        -1.54741211431689       2.81824087046331       0.30656203448483
H        -0.90459830103115       1.86619424600415       1.66234288994362
H        -1.57835122013894       0.03712466150421      -2.05406512282546
H        -1.97839649682277       1.74605534428514      -1.81659044643728
H         0.06643728615976       2.34253719819293      -1.12480172943879
H         0.51514705623408       0.68793058670240      -1.57527582703686
H        -1.87700490474395      -0.80318112553901       0.84421092256817
H        -0.28204808729466      -0.30451791966985       1.40941377969466
H        -3.31772704203242       2.36819554038391       1.90617409475388
H        -3.03088756720624       0.62864187939996       1.85573953759781
H        -3.46134788375985      -0.60050205225090      -0.51444294989640
H        -4.02333420132258       0.41851812309534      -1.83911933221690
H        -4.05024645155666       2.40284986872231      -0.41882292393539
H        -4.94277516887907       1.12175667829924       0.41751699354840
H         1.19351142632384       2.08204610823555       1.09038850258909
H         1.62223168012414       0.41272563699609       0.68296351940186
H        -0.85625329331095      -1.78157294281271      -1.21988321449802
H         0.74300221123588      -1.31534408187792      -0.65325786880500
H         2.47863196670360       2.87668843114635      -0.90744060978116
H         2.89221876810637       1.20148698990606      -1.29886817225560
H         0.41892019856173      -2.69674047840077       1.40817047941624
H        -1.18683294135131      -3.16933693296286       0.83057056918204
H         4.05486602865900       0.97715996257039       0.90619362629478
H         3.65364409838626       2.65874476280006       1.28585668476662
H         1.44983862906720      -3.71254534600903      -0.63039541692076
H        -0.15371865990257      -4.18296580490429      -1.20848374405617
H         5.97164551326010       2.47510132191235       0.41656125177356
H         5.37304972354659       1.73687653843701      -1.07800353044330
H         4.97324048590784       3.42022569158755      -0.70028487753709
H         0.98140747333341      -6.09065881633093      -0.10151780572192
H         1.14556314059905      -5.15442295381602       1.39268664928033
H        -0.46116794167427      -5.62538218403395       0.81406716997616
Cl        0.15822853891796      -0.55194375317849      -3.33227213468515
