53
C15H29F6N2P optimized with ADF in AMS.
N         2.87120968471140       1.64709865329911      -0.53990013061207
N         3.05490156764151      -0.33996836265480       0.31192977310155
C         1.46153470366876       3.45665192746920      -1.47299194803538
C         2.70771174739335       3.10862495285573      -0.66421694681340
C         1.65450802172906      -1.66214394097176       1.88305242271605
C         3.04154667498812      -1.44931508514238       1.28401537886873
C         0.19565352139709       2.89140936334610      -0.84210905718239
C         0.54028987049680      -1.76683290492740       0.84713586337082
C        -1.08645828147817       3.23701065620792      -1.58704391771610
C        -0.83756627578026      -1.80949077593309       1.50200463887238
C         2.94651870890944       0.96396507554969       0.61069785213416
C         2.90983385200449       0.75934554652273      -1.59628546935990
C         3.02210908354148      -0.48958576677380      -1.05940708503860
C        -2.30241704349034       2.62314628518565      -0.89417471378224
C        -1.97399703353027      -1.73393986876952       0.48675433955864
C        -3.62164768583141       2.96527339772303      -1.57691127814324
C        -3.34697489489932      -1.71090720363236       1.15209638273896
H         1.41202848338774       4.55911569790088      -1.51917634784338
H         1.57297180664063       3.11170122209991      -2.51787967330892
H         1.43532771844226      -0.82944616562591       2.56813518993001
H         1.70560245366109      -2.57848131264243       2.49743992931975
H         3.62612634055620       3.50396131303021      -1.12670605268940
H         2.61635790366532       3.49168001588442       0.36085735182293
H         3.78131517601372      -1.21713503431367       2.06455436560553
H         3.39212336637280      -2.33163696559434       0.72867414310546
H         0.12149066138303       3.24706180288238       0.19789926127687
H         0.27665685513947       1.79285498915031      -0.76808106676161
H         0.68785862999445      -2.65211466468858       0.19695143107474
H         0.56908499797492      -0.87727387713303       0.19337502902833
H        -1.20602821990495       4.33641767211243      -1.63688176934500
H        -1.03126226553938       2.87894710496523      -2.63382597750417
H        -0.91567029701006      -0.95283156246713       2.19399484809139
H        -0.93828217631687      -2.72733413493642       2.11173265060276
H         2.86546962623674       1.37844892491261       1.61329321634745
H         2.84511726329686       1.08697971522103      -2.62544512239777
H         3.07055341201165      -1.46434351075020      -1.52863748823016
H        -2.17566366907737       1.52605896716656      -0.85680384894090
H        -2.31915247254057       2.95825120637289       0.15826139865060
H        -1.90782932543029      -2.58524906339649      -0.21707155637380
H        -1.84597378927684      -0.81495531115120      -0.11468613055871
H        -3.78375501475524       4.05526374600364      -1.59693234896228
H        -3.63640398724738       2.60633318449053      -2.61925353803155
H        -4.47136590888351       2.50764305412195      -1.04798542744707
H        -4.15541734131783      -1.66132578067742       0.40681068707591
H        -3.43808626564750      -0.83600944038060       1.81541446027234
H        -3.50310370801526      -2.61368404303465       1.76525199842149
P         0.56917668169693       2.14129608444470       3.16635234193480
F         0.78668531137519       3.00391475761835       4.53090389331708
F         1.96110285388331       1.24798239722368       3.50008871918764
F        -0.33943870608479       1.02543998254559       3.95286911042094
F         0.40421962818962       1.25192413517337       1.75372776972269
F        -0.75419938912317       3.01709146453168       2.75362265660319
F         1.54810834567736       3.21834836248566       2.32081640750484
