48
C12H22F6N2O4S2 optimized with ADF in AMS.
N         0.18153848293842       1.25951572338007      -0.23158788365000
C        -0.78998748232024       0.17527264510406       0.17187097574874
C        -0.29094520505605       2.44347607980719       0.59519668443634
C         1.61968646231040       0.92342921664555       0.11280595802322
C        -2.14633732029191       0.87823099733572       0.29152812350617
C        -1.81322554554458       2.37546520124584       0.53247848659353
C         0.04417037220691       1.56973921917115      -1.69166723472415
C         2.17545171940875      -0.30766347327085      -0.58101895854446
C         3.52578504755735      -0.67818840669000       0.04244918406961
C         4.21556798384903      -1.83032741715477      -0.68406936081911
C         5.57092410481201      -2.16484951437265      -0.06608603614340
H        -0.43942394503338      -0.20250477292067       1.14411276109519
H        -0.75985613610809      -0.63774487118138      -0.56364112633559
H         0.17342436403872       3.35420005080909       0.19468656910664
H         0.08340126943212       2.26332906625043       1.61352753087407
H         1.63242634416953       0.79382131528163       1.20700964764583
H         2.21425816925831       1.81082923347130      -0.14468598870255
H        -2.72417919354395       0.44095349855634       1.11772060373575
H        -2.74189454483071       0.74768865100400      -0.62363676978111
H        -2.20257511017951       3.00357578743277      -0.28190470039141
H        -2.24822021195968       2.75570380809344       1.46726011564460
H         0.33196416969009       0.68234841078336      -2.26535650677969
H        -0.99933985966314       1.83004927989764      -1.90279934483177
H         0.70438996914222       2.41313507627526      -1.92109443836848
H         1.48708832017678      -1.16755981662361      -0.49374992086212
H         2.33130174318450      -0.09834365640719      -1.65166011122814
H         3.37837649311833      -0.94712816753993       1.10555455418631
H         4.17999814172100       0.20836512605724       0.01699014479456
H         4.35276914135017      -1.55209194778250      -1.74442414136279
H         3.56471871554576      -2.72429430265819      -0.67204885408165
H         6.23905769055419      -1.29015566214890      -0.10303769673743
H         6.06472953378946      -2.99139209489117      -0.59930967318939
H         5.46118712271461      -2.45995668473714       0.98992507456315
N         4.11575470767315       4.84351854276660      -1.57539185680324
S         2.76189845659251       5.11950140432837      -0.77542593652100
S         4.64245231255431       3.35999340136679      -1.90470569409357
C         3.18136648699198       4.85813186062811       1.07837272238099
C         3.74019293904931       2.85711955613669      -3.52034418891036
O         2.45365655554161       6.53601223444287      -0.84908035847338
O         1.68077261594521       4.14266386030885      -1.01543247666039
O         4.23128463232248       2.32853580543034      -0.94527229232701
O         6.03091078433279       3.45343814061460      -2.31686252064384
F         2.44465741729949       5.71806691975743       1.82419511241090
F         4.48719595329891       5.07595582506699       1.32474721482411
F         2.87183538390058       3.59533307726689       1.49328266003393
F         4.58679204184286       2.15979299438075      -4.31022240660038
F         3.28638384332934       3.92833972762736      -4.20205832014130
F         2.67063742758805       2.04472608405424      -3.25572476716592
