32
C8H15F6N2P optimized with ADF in AMS.
N        -1.03937168342400      -0.27994414063340       0.43315250287911
N         0.86400708358777       0.66499111415255      -0.00238060719015
C        -2.43200582500749      -0.45537301837958       0.88425694633440
C        -3.31936233248220      -1.03051420005413      -0.21514468311370
C        -0.34534298251846       0.85945673932455       0.53590885620327
C        -0.25580664077205      -1.22657457811115      -0.19680881742847
C         1.88492803467204       1.71450613315727      -0.17592600078531
C         0.94036394173219      -0.63025924648960      -0.47461052772833
C        -3.37713812454489      -0.14978031282395      -1.45833524843978
C         1.99098337266408       2.15438774593141      -1.62662558557117
H        -2.78096215332082       0.54789671535239       1.16828283599702
H        -2.41272280477944      -1.10279483336462       1.77543732615690
H        -2.98894826390978      -2.05480792852093      -0.46811964363857
H        -4.32508295113543      -1.14081143847573       0.22766311725272
H        -0.72075594302209       1.80001800500599       0.92602759585520
H        -0.61062429197135      -2.22978236265593      -0.39410721834770
H         1.57035007783391       2.55404771412745       0.45830389879157
H         2.83131486898399       1.30631285390657       0.21298657183894
H         1.82942340941597      -1.01338395843947      -0.95986451452899
H        -2.38372701528251      -0.03023193557217      -1.91581055067224
H        -3.73441793515919       0.86080770742033      -1.21180249869563
H        -4.04922719748059      -0.58862654205998      -2.21069213981808
H         2.30240952752045       1.32378210384770      -2.27769792482891
H         2.74459753585169       2.95198116197369      -1.70216928252090
H         1.02381495614651       2.54913037623681      -1.96765592848492
P        -1.90404571699621       3.71480346724917      -0.84018035993647
F        -2.47355496252268       5.04832404182311      -0.09290662655798
F        -0.50418511817690       3.78443998763471       0.10050909743525
F        -2.58673590054660       2.74886477547933       0.36645572938279
F        -1.29287927837072       2.31688622385242      -1.54675782405377
F        -3.26951209433925       3.55846906885409      -1.72868782246227
F        -1.17137265174596       4.60724393975109      -1.99945581522383
