40
C10H22F6NP optimized with ForceField in AMS.
N        -0.86970798494579      -0.16630189187248       0.04079419247397
C        -2.00716694359011      -0.27786770409186      -0.92302013483520
C        -1.19657360631716       1.02182599296355       0.88839709446764
C         0.40322984486279       0.07184183977813      -0.71528004776527
C        -2.83065644686717       0.99165634490396      -0.83388310433801
C        -2.61811087152563       1.45046236106881       0.58056680537710
C        -0.80085832646901      -1.39151179031690       0.90178016415986
C         1.66627216036664       0.17089039284438       0.17443283829195
C        -0.44562378672492      -2.68387478652530       0.14446258565538
C         2.87915058137631       0.62736293514304      -0.64564568494886
C         4.12884156838418       0.71930702025796       0.22471361831298
H        -2.69066774879111      -1.12180051792438      -0.67137289774306
H        -1.67950648753651      -0.44313270500362      -1.97514234774386
H        -1.09132368590974       0.82624270015376       1.98047920196523
H        -0.54185285358667       1.89478945279924       0.66226835910630
H         0.56964739507052      -0.73472462895802      -1.46388073534122
H         0.31141283994597       1.01160262314118      -1.30826999763863
H        -2.43223910666311       1.75137296059136      -1.54251645560705
H        -3.90631413849166       0.80666285198598      -1.04557854291970
H        -3.32471810137697       0.92247974305805       1.25830938390805
H        -2.75293835056845       2.54985897829099       0.67695729400709
H        -0.06162464645556      -1.25775103671365       1.72220037659281
H        -1.77903944298143      -1.55193167704479       1.41087280625690
H         1.50475743853473       0.88697486314127       1.00698871778995
H         1.89923202995624      -0.82224725007866       0.61206946146755
H        -0.57754781011236      -3.55198175030908       0.82404590260880
H         0.61333440836519      -2.67739514577232      -0.18430394802398
H        -1.10000454690697      -2.83529092627562      -0.73803850218267
H         3.06638694304334      -0.09478717681495      -1.47018065092126
H         2.67851764531545       1.62676646645024      -1.09013882724816
H         4.36272944096594      -0.27082158913546       0.67132975559425
H         3.97864621566403       1.46218061933317       1.03692412352516
H         4.99096753222527       1.04145578642831      -0.39674835960573
P        -5.73696339382212       4.12133193641427       2.36703815422149
F        -5.40075287257498       3.99191521002374       4.04603871937814
F        -5.34765700092368       2.45662270836434       2.21301333576089
F        -7.37243339796245       3.61512972612246       2.50013581910681
F        -5.86628255562550       4.29004193556141       0.66294416479752
F        -6.33105099012017       5.71020452345646       2.63511473045860
F        -4.11706726082740       4.64831234886103       2.14927162777823
