58
C16H36BF4N optimized with DFTB in AMS.
N        -0.00589895759483      -0.19699124381236       0.31247405884049
C         0.87518917716171      -1.07390941139573       1.16447664622237
C        -0.87418921439581       0.63097199275130       1.21324904883633
C        -0.82865911208455      -1.09161887137747      -0.58642925892841
C         0.81801030945879       0.71901763250694      -0.55390618282621
C         1.84314214591372      -0.34955828792337       2.09355609215554
C        -1.88640799348715       1.52603526785210       0.49965691257750
C        -1.90224335851722      -1.91929845469855       0.11526589853268
C         1.91087950337515       0.03044446091710      -1.37042236549637
C         2.76803869798920      -1.40105348257692       2.72606713286596
C        -2.77750197689562       2.21404298266311       1.54182212860828
C        -2.43461795258544      -2.96316568875881      -0.87593476384042
C         2.60193230847755       1.06535788988468      -2.26538499800415
C         3.79352290346224      -0.75031944848260       3.65031605871944
C        -3.79576957290763       3.13418590257527       0.87228242477082
C        -3.54196314134050      -3.80425633008286      -0.24513491862080
C         3.71006840875966       0.41067027325346      -3.08774623437161
H         1.43537666765293      -1.71154572134511       0.48145214458335
H         0.21677216520141      -1.71674504608575       1.74997785280735
H        -0.20907077120982       1.25243236310331       1.81705206548351
H        -1.39338486576166      -0.06183803821738       1.87960735001528
H        -0.12220542304709      -1.76788461509582      -1.07074655291011
H        -1.28365180490446      -0.45634954731684      -1.35048351753903
H         1.25953151603346       1.47453065152851       0.10177013147463
H         0.12389013837126       1.22138248409469      -1.23224400506481
H         1.30833926015205       0.18708757341288       2.88370243630796
H         2.45071787293325       0.37369380147333       1.54323165464321
H        -2.51426480620360       0.94065306909864      -0.17580469815140
H        -1.37193735428656       2.28885083427211      -0.09072699504865
H        -2.72410504463495      -1.28616434480940       0.46448199499280
H        -1.47946705885248      -2.44614191133697       0.97218881682145
H         1.48659032132613      -0.75932509987132      -1.99243025526813
H         2.65372102523815      -0.42773087996018      -0.71504426150963
H         3.27903424628609      -1.95139168922078       1.93098579802782
H         2.16517551651407      -2.11786457679034       3.29201651655022
H        -2.15284168594767       2.79584764186480       2.22766424226888
H        -3.30243330434958       1.45329485807113       2.12875087793419
H        -1.60835085637138      -3.61532194794593      -1.17212860134117
H        -2.81648185853849      -2.46076222595611      -1.77110784641697
H         3.02633409121524       1.86320487869415      -1.64551421464643
H         1.86521865532116       1.51915659871214      -2.93754060359731
H         3.29748537528961      -0.21436783905787       4.46144913934180
H         4.41554742244039      -0.04492872302173       3.09710296779799
H         4.43773003098032      -1.51576113941393       4.08243669652293
H        -4.43819308466378       2.56660601294351       0.19809527464561
H        -3.28988174617395       3.91184598670751       0.29883506598441
H        -4.41917651142961       3.60961264439020       1.62916836233683
H        -4.37614146234534      -3.17441150993999       0.06919065900040
H        -3.16109507161824      -4.33937273053700       0.62545238124306
H        -3.90858488799261      -4.53332115209193      -0.96744345988620
H         3.29986346696816      -0.37926238145866      -3.71718982130329
H         4.46381441012104      -0.02514391636579      -2.43144743612044
H         4.18913885410599       1.15347724508292      -3.72565147366841
B         1.55158112690616      -3.80788719198852      -0.51706934718680
F         1.73770999241915      -5.08247369072571      -0.96454669486582
F         1.39646011374675      -2.89739636312358      -1.60409034082039
F         2.62813000580691      -3.34818111340941       0.26472038295443
F         0.36662331701221      -3.69483122675901       0.26344925086540
