43
C11H21F2N3O4S2 optimized with ADF in AMS.
N        -2.77740590173164      -0.01080427400808      -0.38685684759939
N        -1.05591987559873      -1.26786190975412      -0.77716277781206
C        -3.87616284061852       0.64775181432787       0.32698096587917
C         0.11269873325248      -2.12822044485380      -0.55567965536199
C        -3.71680262551096       2.16251158326343       0.31699162612692
C         1.41616742098142      -1.34196715212207      -0.65367087355068
C        -1.83329981487034      -0.76206327383388       0.18713538829628
C        -2.60412536644923      -0.03932949897602      -1.75355089950211
C        -1.51834179908777      -0.82792185836814      -1.99933622280621
C        -2.44151617358800       2.64335794562887       1.00614158258410
C         1.55460634385314      -0.23522210548120       0.38980209097276
C        -2.30809247412985       4.16331262610449       0.97781902732179
C         2.88238469990335       0.50881108571061       0.26377459004366
H        -4.81056814921428       0.31327666289585      -0.14784586411160
H        -3.86953112813073       0.24123362597677       1.34813443918858
H        -0.02667765766944      -2.58642889353401       0.43343926697986
H         0.05606927554487      -2.93582570090434      -1.29988858932880
H        -4.60162652680067       2.59127261201317       0.81975901340475
H        -3.74121295635634       2.53326910918256      -0.72455570829185
H         1.51776095995344      -0.91226267647591      -1.66750739579206
H         2.24195027103994      -2.06627621840215      -0.53867523697340
H        -1.75320044164022      -1.00060846907871       1.24057353726882
H        -3.29166442379436       0.45241231649437      -2.42948531016311
H        -1.06353497468291      -1.14316435258377      -2.92976700128776
H        -2.43729181290516       2.28356716602053       2.05181464755298
H        -1.56322236695622       2.18859995258973       0.51332990858727
H         0.72249152014640       0.48334352552900       0.28085482565395
H         1.46226165915718      -0.67513679438914       1.39985237924329
H        -3.16365681813192       4.64371455908180       1.47882167129197
H        -2.27506347506872       4.53404501119950      -0.05915552199168
H        -1.39024609153234       4.49645506752601       1.48513431476413
H         2.97438293526004       0.98305485557759      -0.72657263547874
H         3.73348932093938      -0.17998083099677       0.38476852670053
H         2.97699100428392       1.29741584202150       1.02549866337055
N        -3.91889371020797      -4.35487927188352       1.09632413855113
S        -3.17115262525651      -3.51117310829955       2.21727562768988
S        -3.90598152863668      -3.91881147360263      -0.44545746728920
F        -4.00201228996190      -2.04258848345886       2.25429233893054
F        -2.30837242578413      -4.14195862553969      -0.90099908100617
O        -3.43556374546759      -4.09926235290180       3.50871151251017
O        -1.81330806190940      -3.06757874774657       1.89118421436262
O        -4.10885695168237      -2.49679407732857      -0.69324671437183
O        -4.63530632804066      -4.90642939482038      -1.20503026265705
