49
C15H28F3NO2 optimized with DFTB in AMS.
N        -1.36696040007515       0.26144077186516       0.33148929639938
C        -2.27686138178665       0.15664026217196      -0.86463986926869
C        -2.12536354307314       0.80306415467521       1.51488938124731
C        -0.30463586991971       1.26466192681995      -0.04448483393391
C        -0.78577077512381      -1.07257089824483       0.69649514606789
C        -3.56629113939571      -0.60169239304645      -0.58660020532508
C        -3.42049179594001       0.05722557522138       1.80052501886782
C        -4.31711560578801       0.06057097807210       0.56550977769469
C         0.74111337609077       1.53352484288968       1.03336551246582
C         0.17109513681902      -1.67462634254568      -0.33106249401455
C         1.82473772507988       2.45775659972693       0.46235245502725
C         0.61456301489260      -3.06413536703598       0.14439891013015
C         2.87668154756579       2.78398479347065       1.51926411461514
C         1.58525538888849      -3.69986750261001      -0.84832959438678
H        -1.70984450940092      -0.31264918774347      -1.67033989801843
H        -2.52431870598210       1.18021998273932      -1.15534086478511
H        -2.35259671514981       1.84656235124600       1.28526219708412
H        -1.45993776575603       0.76011373426612       2.37888026432028
H        -0.83740036630222       2.19045116744073      -0.27795193840607
H         0.17128694693808       0.90124493857021      -0.95829474487056
H        -1.62335159754205      -1.75477029352479       0.85557635775140
H        -0.26716272936985      -0.94927227851848       1.65031156235658
H        -3.37123626013827      -1.65568860252450      -0.36367629475712
H        -4.16652118330523      -0.55892252244286      -1.49912268500658
H        -3.91580412955730       0.58104512377099       2.62226255727120
H        -3.22364376038341      -0.96900543474884       2.12761419398978
H        -4.55873783063736       1.09312738746971       0.29351076762390
H        -5.24475666165939      -0.47779760464620       0.77174270464496
H         1.20443885098662       0.60372707061949       1.37629955503290
H         0.27549332056310       2.02325982950307       1.89178906499177
H         1.05342405736247      -1.04144317122193      -0.45124850347661
H        -0.31515453653505      -1.76845622264497      -1.30531076057669
H         1.35979505839594       3.38331588036717       0.11315689894448
H         2.30241660345841       1.97275069341869      -0.39594036308441
H        -0.26437264892064      -3.70685886701944       0.26033830614759
H         1.09746612438714      -2.97580304180827       1.12314269346578
H         3.35825904289526       1.87308925810589       1.87894131922731
H         2.41852058281967       3.29398352657268       2.36720373892983
H         3.63903582235318       3.43562244654718       1.09280477825117
H         2.47689905913065      -3.08200848911777      -0.95996909098139
H         1.11430646655910      -3.81142626113712      -1.82560250622860
H         1.88645663951586      -4.68478709091763      -0.49248897024893
C        -3.01738811229374       4.19603484085138      -0.10989391371705
O        -2.99580747798355       2.97106833789103      -0.30771246920891
O        -3.83123884928042       5.06462530627114      -0.30520607567342
C        -1.60571428345831       4.67463132285755       0.57743093320139
F        -1.55265455511520       5.92497369159112       1.03391181125896
F        -0.56858250721352       4.52387872367607      -0.28880620867291
F        -1.29798025101553       3.86000358191064       1.63144489683295
