34
C10H18F3NO2 optimized with ForceField in AMS.
N         0.42760641411100       0.21979253493009       0.04224616183671
C        -0.51536079990850       1.27251656855435      -0.45529649627688
C        -0.10052234873765      -1.14313377067583      -0.27280158359341
C        -1.97614896094536       1.08138595163976      -0.00486719286082
C        -1.54425417520845      -1.37073691576617       0.20813429430425
C         1.72874088416430       0.43932388845115      -0.67249947143252
C        -2.47788000943951      -0.31197188477502      -0.36495795114810
C         0.63925118556077       0.38088014392672       1.50711522433489
C         2.85913072784012      -0.54604730812301      -0.32138108882001
H        -0.52299871951697       1.28890434649419      -1.57020065601281
H        -0.17998015916756       2.28320808099348      -0.12799395684698
H         0.52619916774382      -1.93042727846668       0.19995515021293
H        -0.07357447525850      -1.32212630368924      -1.37245579430912
H        -2.61336476208022       1.83412598363329      -0.51769346599598
H        -2.08666527441776       1.25886147781043       1.08471610021647
H        -1.59311015743138      -1.36129218743453       1.31767231392703
H        -1.88631485471774      -2.37350842154131      -0.12746820273751
H         1.57904322386383       0.37783694994098      -1.77506934923986
H         2.10910866100290       1.46706616669362      -0.46908537757384
H        -3.50063662369836      -0.45661871722719       0.04486610223387
H        -2.53070250866273      -0.41793623744749      -1.47121402349773
H        -0.31246716210519       0.39229959813592       2.07255031360534
H         1.23174666133069      -0.45840780755237       1.92883469995262
H         1.16835767482172       1.33322249281560       1.73373175268902
H         3.76617099363007      -0.26759189050047      -0.89862869457986
H         3.12943446795728      -0.49928903832091       0.75202360666210
H         2.59865707626152      -1.58510533150402      -0.60580048286365
C         6.05062421106577       1.47578970994269       1.23122079286117
O         4.89043068978011       1.75593669937820       0.97543741687723
O         6.31822613721878       0.91741031021908       2.28314379033887
C         7.14685500711096       1.81744742502333       0.26626718377600
F         8.03949672685196       2.68346322821951       0.87012024325721
F         6.62828146081595       2.42193295356015      -0.86579633744624
F         7.81296362436430       0.66412933296170      -0.10471520875040
