40
C10H22F6NP optimized with DFTB in AMS.
N        -1.66949010759927       0.09669776381335       0.00328866689693
C        -2.08482026985394      -0.81485015557775      -1.11934976978958
C        -2.76010044512892      -0.03209587971112       1.02601297685449
C        -0.36024520715024      -0.31470839116812       0.61600503428804
C        -3.60422962326326      -0.96749977723649      -1.02869158727378
C        -4.03846111452029      -0.18871621753617       0.21724728345765
C        -1.60012316351484       1.50039677387500      -0.47503147302906
C         0.80820268987565      -0.31948713006613      -0.36515657826632
C         2.01702740169347      -0.98979018596156       0.29984215435878
C         3.21883616135474      -1.01910686373869      -0.64841315651041
C         4.41400348534207      -1.71466181625569       0.00030935251635
H        -1.59438727426779      -1.77459282249484      -0.96854648932808
H        -1.75483780550366      -0.38354497608781      -2.06484587396467
H        -2.74883542303861       0.83981752724229       1.68068434344770
H        -2.56112834317958      -0.93403060448181       1.60625276526195
H        -0.50619087967423      -1.32065264141631       1.01147590958997
H        -0.16921951925411       0.37102604170641       1.44610978766664
H        -3.84642389910071      -2.02723982794730      -0.92537972363926
H        -4.09650299301324      -0.58481414870349      -1.92413770591866
H        -4.45384725546369       0.78601519480193      -0.05249885983465
H        -4.78748292542025      -0.73336140956925       0.79306790957295
H        -0.85632801958791       1.57445380535384      -1.26487599288992
H        -2.57291040247474       1.79344003775593      -0.86377248014572
H        -1.32213268948766       2.14686196281265       0.35596752840991
H         0.53952575854753      -0.88507219513265      -1.26029022469758
H         1.06896640348032       0.70044382907998      -0.66504591610904
H         1.74605497758034      -2.01249809959760       0.57690395350812
H         2.27938372624126      -0.44739264060967       1.21460109837457
H         3.49489734237667       0.00511885785841      -0.92362097550398
H         2.94282539088547      -1.54988199298512      -1.56537448019992
H         4.71551143139503      -1.19076384256684       0.90848946979192
H         5.25753310718930      -1.72809628107715      -0.69000862562753
H         4.16015882558321      -2.74269023152954       0.26017880357641
P        -1.33541243359060      -4.19168866563902       0.38511484839910
F        -0.31257537415981      -4.45479344296066       1.62855389567048
F        -0.19913929790632      -3.14511025543779      -0.29714254896157
F        -0.71620950374334      -5.42527573788144      -0.46591377726182
F        -2.36129014387637      -3.80885664397286      -0.86890901660942
F        -2.47821752834139      -5.13192359728631       1.05452504001040
F        -1.96219840503024      -2.85278720427058       1.21642123670864
