41
C11H21F6N2P optimized with ADF in AMS.
N        -0.96991047313946       1.48281560321723      -0.19047759656006
N        -2.27996282623890      -0.17864537747800      -0.66871537746799
C         1.34487051575461       2.17622682305037       0.35097310919523
C         1.94003478210259       0.88525083539394      -0.19826227397465
C         0.03440714701255       2.55061268960484      -0.33569650302001
C         3.28736437636849       0.52336461532034       0.41547418992586
C         3.84235701008195      -0.77067803410455      -0.17813773664344
C        -1.47889603600079       0.75803130788457      -1.19519995379005
C        -1.44504825629782       0.98961934950519       1.00851029557808
C        -2.27110034884745      -0.05356691015065       0.70482321930229
C        -2.95663288817609      -1.24037349016830      -1.43763152846017
C         5.21242448615315      -1.14183794057581       0.37806708734097
C        -3.96965998714817      -0.67923631578083      -2.41880510231311
H         2.04053224210439       3.02003808063293       0.19328491851403
H         1.19208897826251       2.10460329462820       1.44429440068859
H         2.04576699777854       0.96900215465939      -1.29225312014098
H         1.23658224906243       0.04960338112119      -0.03954000372825
H        -0.40114448328232       3.47402406816756       0.07834407030218
H         0.19029383858404       2.67943643524667      -1.41597435329799
H         3.19008578849728       0.41945528549623       1.51385550465365
H         4.00731141068056       1.34646156514690       0.24292703987326
H         3.89123698822489      -0.66777392010335      -1.27578291218263
H         3.12324820440793      -1.58805253086031       0.00941183984728
H        -1.21788069231201       0.85772665685886      -2.24496309601834
H        -1.15065898947146       1.40916852383579       1.96184532858722
H        -2.84313492889742      -0.71522483093367       1.34332553008486
H        -2.16563517768401      -1.80395576311238      -1.95476105227113
H        -3.43480251241443      -1.89022129125553      -0.69099596619830
H         5.17470538559501      -1.28179214940416       1.47073955370342
H         5.95041450410568      -0.35114984992980       0.16670577474697
H         5.58269106078138      -2.07674774778462      -0.07078521832958
H        -4.73298421486322      -0.07582904144169      -1.90514425466724
H        -4.46655274847774      -1.51592917421753      -2.93182042709980
H        -3.47058104688695      -0.07360980941728      -3.18770501443829
P         0.56755403514225      -0.84881568420329      -3.66635954079286
F         0.83278890238358      -0.42499680281425      -5.21985422232841
F         0.41995002342033      -2.42804444967376      -4.06461051020104
F         2.17243849180172      -1.00243796554646      -3.37543307102383
F         0.24648615340881      -1.23125963521410      -2.06139766041141
F         0.64724187693001       0.78061778829393      -3.21679286715372
F        -1.09032026100638      -0.63067593109381      -3.88308185113062
