45
C11H20F6N2O4S2 optimized with ForceField in AMS.
N        -0.04070367504577       0.23755576654311       0.18424995496922
C        -0.96109523820494       1.22742318829852      -0.45940663639178
C        -0.47658645890904      -1.15668392583380      -0.13632964552678
C         1.32256038509854       0.49258389778251      -0.38967783552183
C        -2.45449626030807       0.99499055923695      -0.16514154746403
C        -1.95587489335432      -1.43035428964655       0.18821961767960
C        -2.86262335419937      -0.43026806158803      -0.51892888350762
C        -0.00532827874629       0.45867214858131       1.65557989602787
C         2.45862084326065      -0.41275054195057       0.14430512798036
C         3.78070730840028      -0.08453191790599      -0.54603379777277
H        -0.84318304854699       1.19095099581768      -1.56612196473648
H        -0.70183979140597       2.26473723088451      -0.14656351974241
H         0.11951672590329      -1.90072843149657       0.43451041279604
H        -0.31800250820387      -1.37068254994769      -1.21862218182812
H         1.61884270843685       1.55128073024716      -0.20251046519806
H         1.29475785838622       0.37428555339265      -1.49624411087706
H        -3.05567108893865       1.70136952436101      -0.77797028567832
H        -2.69299347694618       1.21107800019302       0.89661081527381
H        -2.12918289241213      -1.39310080070551       1.28469449296349
H        -2.21794111819933      -2.45599099522959      -0.15072239210190
H        -3.91658211544043      -0.60176948674366      -0.21077446815223
H        -2.79614262228781      -0.57780467657223      -1.61956920427988
H         0.57011319886321      -0.33750978929557       2.17356102687206
H         0.45365135943276       1.44200246389676       1.90195795943587
H        -1.01515635612806       0.44500255780027       2.10891061073368
H         2.60168621021877      -0.26202593496611       1.23381621980384
H         2.23917371558376      -1.48220705715771      -0.04820040804119
H         3.70022898357165      -0.26231639609563      -1.63993394403895
H         4.05869590335303       0.97585870204064      -0.36617420988095
H         4.58423482859825      -0.73489207329742      -0.14030529798771
N         0.56288126224609       1.63035869115101      -4.78085066318788
S        -0.68777807795696       2.52632016486447      -5.34929555402022
S         0.70820108912206       0.02472179125114      -5.08035626176627
C        -1.93685827994519       2.66225773331679      -4.08746484435352
C         1.69837778449565      -0.21789367623233      -6.54157956863526
O        -0.19500509075934       3.90392745770401      -5.69067440222426
O        -1.28463008174242       1.88987955670778      -6.57381754744174
O        -0.64458408533264      -0.59905565832261      -5.28351602285321
O         1.39534244353327      -0.63744433639153      -3.92061494026336
F        -3.00870654516125       3.38655610676895      -4.57228579351654
F        -1.41130397085707       3.30927602162140      -2.98539242199212
F        -2.36657453960894       1.40104314016353      -3.72179735584802
F         1.82539306610046      -1.57055145833919      -6.79406962239962
F         2.95203478400475       0.33027316556404      -6.34702127699770
F         1.09431678223146       0.39432915632909      -7.62280557300806
