22
C8H8F3NO2 optimized with DFTB in AMS.
N        -1.27051420991252      -0.11904394263217       0.30333356598240
C        -0.64341249861029       1.03477739131289      -0.04939195761184
C        -0.91785198706727      -1.30424983596023      -0.25331415920066
C        -2.52225419760518      -0.02508339311499       1.05010149004186
C         0.50850036728487       1.00771914066252      -0.77479746009442
C         0.35327033025182      -1.38085325013022      -0.88534457478632
C         1.03803636385714      -0.23774254468783      -1.17497894959352
H        -1.09065030806777       1.95172177287056       0.31325239581916
H        -1.35465932998413      -2.18988579813226       0.19435662920843
H        -2.80063284144464      -1.01185385278446       1.41429291647982
H        -2.39264925631522       0.65809121928690       1.88844950124879
H        -3.29493190849849       0.35473031282900       0.37770321038558
H         1.01323530456997       1.93057752876767      -1.02630534734738
H         0.70754876861275      -2.35441166954291      -1.19724654192657
H         1.98975768027970      -0.27599885596426      -1.69125829930996
C        -2.72707617469740      -0.54241072649259      -2.26876740942556
O        -2.11001029789533      -1.52437846970819      -1.78121963291054
O        -2.92352714004102       0.57153854530720      -1.83142340711384
C        -3.32350092616793      -0.88739373710491      -3.70658376503017
F        -4.05607318025294       0.11571549181525      -4.19262966185855
F        -4.10225254354028      -1.97581549338039      -3.66597466400481
F        -2.33682093355586      -1.12987506901655      -4.58138767615189
