37
C11H23NO2 optimized with ForceField in AMS.
N        -0.06273800998371       0.25414405431760       0.15828935727485
C        -0.98947371643453       1.23610904790667      -0.49122765076116
C        -0.50329580280280      -1.14533312999860      -0.13166719421441
C         1.29618192556312       0.49034091753024      -0.43423346315393
C        -2.48030609066632       1.00521114599393      -0.17855285546001
C        -1.97785825602470      -1.41207636706125       0.21304484291387
C        -2.88794595793165      -0.42595575683485      -0.50837233001592
C        -0.01142888919372       0.50216312058691       1.62509613504384
C         2.43345800373102      -0.40133674742986       0.12197613468132
C         3.75445740298786      -0.09743114835218      -0.57904931072032
H        -0.88332947354719       1.19180192002748      -1.60030017581347
H        -0.72854179584148       2.27698421447907      -0.19155219184351
H         0.09811478980291      -1.88024163495788       0.44520881005513
H        -0.35720774468267      -1.37945411911863      -1.21147317212811
H         1.59581490787553       1.55356094931790      -0.28179167550804
H         1.25945370699607       0.33467984962104      -1.53763348624205
H        -3.08962470233376       1.70158781249405      -0.79423348529461
H        -2.71041842756061       1.23513455472321       0.88219780687798
H        -2.14032308158364      -1.35118513717346       1.31014303207073
H        -2.24208580288144      -2.44469585791499      -0.10219674438678
H        -3.94120708804053      -0.59523298962803      -0.19748309291220
H        -2.82092706624163      -0.59034219250584      -1.60651982832768
H         0.55679957592032      -0.29226080072365       2.15367058870135
H         0.46308212630142       1.48363881480660       1.84871387192138
H        -1.01726729432124       0.51112840537586       2.08731273685121
H         2.58115592034599      -0.22323084046958       1.20684921822082
H         2.21158149682493      -1.47510453991753      -0.04037183011231
H         3.65994239697178      -0.26095599087242      -1.67367251432575
H         4.06213804821360       0.95279732506991      -0.38880575252594
H         4.54104000121591      -0.77540570609460      -0.18868502750584
C         8.30018220144739       0.65498557637382       0.09298286225519
C         7.48643022988211      -0.58746498441570       0.27132352613011
O         7.22166697048119      -1.28523991250113      -0.69391556441799
O         7.08565982442591      -0.90775873121530       1.37882294769645
H         9.29203233475307       0.39145745074916      -0.33073252187600
H         7.77812854131156       1.34617281874372      -0.60168745595132
H         8.45052873681992       1.16948203096829       1.06629600600314
