47
C13H25F6N2P optimized with DFTB in AMS.
N         1.96102045035675       2.04782163646444       0.37104192014016
N         0.02639091403163       2.45237550194281      -0.47692153235638
C         3.31953730135843       1.53630966401098       0.50257866965776
C        -1.05260258791805       2.51941514582258      -1.46018269027216
C         3.31453894699330       0.15157287541193       1.15565633541096
C        -1.46767899577046       1.12133281401176      -1.91730923625059
C         2.55929400781423      -0.88339371257688       0.31650967491090
C        -1.85932914001648       0.21587130014958      -0.74637445473528
C         1.17135745503847       1.80564980859999      -0.66976517827425
C         1.30595654579806       2.86400920910316       1.25358015794926
C         0.08437997550633       3.12233556740442       0.71509294151367
C         2.64951955431906      -2.28062951348254       0.93784032611746
C        -2.22017072411597      -1.19063774137195      -1.23472588828400
C         1.85354697854466      -3.29692391806936       0.12124980757959
C        -2.55655716526691      -2.11485007380196      -0.06607205271794
H         3.88683893862832       2.24441265965290       1.11079345880496
H         3.75397093572819       1.49155090897724      -0.49976661099334
H        -0.67944276226136       3.09395464405112      -2.31379501641960
H        -1.88785487317531       3.05115496704773      -0.99820810348765
H         2.86580975122386       0.22155280895954       2.15183302244199
H         4.35605348170821      -0.15994951131385       1.27376850987413
H        -2.31464312269324       1.23557192570443      -2.59926224477679
H        -0.64677862526244       0.67047698269807      -2.48039680144158
H         2.97381528876813      -0.90350966618486      -0.69634294114883
H         1.50556148757567      -0.59252444915370       0.24191828570489
H        -2.71028633812487       0.65197667115166      -0.21158965034097
H        -1.02283685515325       0.14887050839778      -0.04147744703948
H         1.43186683345629       1.22039447505718      -1.53275654989630
H         1.75723553309545       3.19809857547722       2.17119750059506
H        -0.73216623831012       3.72285288661047       1.07562989340913
H         2.26150798762832      -2.24968064404617       1.96169138403464
H         3.69828644324079      -2.59063772555910       0.98597952753141
H        -3.07693829094831      -1.13167972564814      -1.91345834511657
H        -1.37630510472434      -1.60566344328764      -1.79537910279780
H         2.23454670683049      -3.34953761410931      -0.89900397520690
H         0.80009771252240      -3.01544931142936       0.08386287854329
H         1.93317044069510      -4.28486043426453       0.57442066349299
H        -3.40512458982319      -1.72615243490174       0.49838125787422
H        -1.70316948797478      -2.20409132701512       0.60792918529642
H        -2.81091363923332      -3.10753095229723      -0.43694668027815
P         2.54306021250714       2.67562303818020      -3.61442260474464
F         2.09155120647264       3.51261394346115      -2.23166115462382
F         1.07378532503852       1.85421312205097      -3.51582254589048
F         1.83719156497160       3.81794497182198      -4.53352025198507
F         2.94854222305408       1.79276045080027      -4.91474632101169
F         3.96793862089354       3.45795311933467      -3.62241095362886
F         3.20303217737273       1.49207375485723      -2.60967385006379
