26
C8H14N2O2 optimized with ADF in AMS.
N        -0.42879174668996      -0.07244272917164      -0.15994810300193
N         1.67767793167848      -0.10668694699621       0.40439317021429
C        -1.61217976495602      -0.28010385740160      -0.98843363876674
C         0.74358474904611      -0.72591275040995      -0.36206103914583
C        -0.17810655615651       1.08053104568582       0.57324892166186
C         1.12994053469672       1.06109501202309       0.92162601381900
C        -2.89026736109570      -0.31335317113403      -0.16760034902466
C         3.09798701421029      -0.36322817234301       0.27414113287265
H        -1.62367852524779       0.52806532061777      -1.74030336545276
H        -1.45834792588066      -1.22284108025018      -1.53284166980372
H         0.80699270748125      -1.76506073534618      -0.65881364932272
H        -0.94237889623735       1.82427542630752       0.74818541367619
H         1.73033735527072       1.78239718570568       1.45953779568102
H        -2.85711620425785      -1.12635631535630       0.57322688465876
H        -3.75492180249490      -0.47229261204527      -0.82846105672583
H        -3.05173355060219       0.63444862500360       0.36717848881783
H         3.25101732494383      -1.41747660137241       0.01566568113521
H         3.50622099789063       0.26582213396264      -0.53125068726128
H         3.59888771755750      -0.14674902085867       1.22622081653166
C         1.70790792191229       0.94416442729348      -4.25071385169262
C         1.33834407778979       0.70731997249619      -2.78222712737207
O         1.31044625586955      -0.53776213338692      -2.43194036718048
O         1.11716623975516       1.69163633866535      -2.04784238831018
H         2.77467289137743       1.21074057570876      -4.30603652664803
H         1.54272598590236       0.04788104769328      -4.86350301906477
H         1.13520000493683       1.79429175940918      -4.64546230059484
