31
C9H20ClN optimized with ADF in AMS.
N        -0.13976761950871       0.17079430879769       0.14840057251859
C        -0.98469088303668       1.28729890477027      -0.42894541299032
C        -0.65867740641084      -1.17631126462395      -0.34551676566961
C         1.27842620381438       0.37892070514165      -0.35939690035452
C        -2.47276775503090       1.12512063124819      -0.15725064009559
C        -2.13709131909132      -1.35501318326348      -0.05952084950039
C        -2.98388495052933      -0.22955722698601      -0.64754321639645
C        -0.14725672128846       0.21270443669406       1.65325944796021
C         2.32197671975724      -0.59100096742886       0.16299463852688
C         3.67904876368538      -0.27837520273543      -0.46615885619210
H        -0.79717894370676       1.27653667728506      -1.51574850290929
H        -0.59425841630955       2.22958963874709      -0.01272886987767
H        -0.07723305414196      -1.95414660878913       0.20764263233394
H        -0.45381100223452      -1.19250813858940      -1.42951212264358
H         1.53933546231651       1.41697207073187      -0.08874045135092
H         1.20878628028875       0.32239466578197      -1.45912676908531
H        -2.98961032590641       1.95243348900886      -0.67263600091178
H        -2.68444002634016       1.24956247779735       0.91811781935779
H        -2.28870107701856      -1.45141497564652       1.02951328928913
H        -2.42395183437520      -2.33018244210885      -0.48577104830937
H        -4.04501849894954      -0.35379785453202      -0.37720090955299
H        -2.92346282556773      -0.26177684686732      -1.75211276258088
H         0.27837389194597      -0.75428802817646       2.02087004014257
H         0.43136194826536       1.09200529977770       1.96897936028213
H        -1.18205001524525       0.30208913636566       1.99809896400539
H         2.39473291779249      -0.53068128311336       1.25945662942075
H         2.03099188844106      -1.63343575554625      -0.03877861322283
H         3.65453240680995      -0.38074002424013      -1.56355558731146
H         4.01595688940117       0.74362103751292      -0.22563348431318
H         4.43387041563629      -0.97986259626211      -0.08116291869405
Cl        0.68835118443735      -2.93956382755104       2.01035929762492
