44
C12H26BF4N optimized with ForceField in AMS.
N        -1.62682438208758      -0.29040089744461      -0.16979877295283
C        -1.90877007955887       1.12248842438565       0.22846188243847
C        -2.63645021078307      -1.21174953938325       0.44216936278786
C        -0.28818350827791      -0.71031872973410       0.36312145799413
C        -3.35308424984644       1.56660432340757      -0.06211312417579
C        -4.10137455111043      -0.81226300442017       0.18258426196117
C        -4.35600871255867       0.63084853870491       0.60331101051907
C        -1.63878516310679      -0.43691088083923      -1.65066588960985
C         0.93288715972377       0.06542273432729      -0.19182486061508
C         2.23256308994127      -0.46116180100671       0.43183930353825
C         3.45827212058611       0.26586614093322      -0.13546123446617
C         4.75180833047779      -0.28167736084367       0.48043697323284
C         5.98032440137022       0.42259623684214      -0.08792892195053
H        -1.23880636137082       1.82759408801943      -0.30873164786828
H        -1.72072446512419       1.26064379186195       1.31777954546503
H        -2.50283810918993      -1.25045017929594       1.54862724468516
H        -2.48946798042603      -2.25133043417100       0.07013676679001
H        -0.27364528431240      -0.60705180619289       1.47320151307427
H        -0.12283937712870      -1.79273099565005       0.15110358191600
H        -3.50197649274840       2.59368281134847       0.33488913014687
H        -3.53636116299182       1.60795088667792      -1.15661203123791
H        -4.37556929569355      -0.95648005913666      -0.88259733487031
H        -4.76515338613175      -1.47935747669774       0.77376477904305
H        -4.27246862842138       0.71822666315462       1.70865278183357
H        -5.38717990765308       0.92481347804418       0.31074094707373
H        -1.01225869735712       0.33857459166793      -2.13853252678175
H        -1.26748006057998      -1.44047162653944      -1.95696619886794
H        -2.65118451216000      -0.31456189459704      -2.08107065468956
H         1.00551859638673      -0.06138154721296      -1.29175250378657
H         0.84783679630812       1.14616727325850       0.04388620799954
H         2.19696111622623      -0.31664085451616       1.53455377272212
H         2.32511737386854      -1.54997817127716       0.22215546041502
H         3.37631094556163       1.35343357289182       0.08374222323937
H         3.49019051457288       0.12908165999908      -1.23917249882152
H         4.83486334809732      -1.37056124444339       0.27097789796645
H         4.73216610886142      -0.13679314240330       1.58265756729657
H         6.04070803075951       0.26853125646179      -1.18665288893812
H         5.93741645239207       1.51138741759078       0.12900419484230
H         6.89681031770657       0.00358047463016       0.37932230834126
B         0.37178818393804       0.63178847706348      -5.07127891786524
F         0.76650362549262       1.60287234612263      -4.11261890079742
F         0.42341883560286       1.20094631772337      -6.37147226556461
F        -0.95438130546772       0.20463764110411      -4.79714716509771
F         1.25093511321293      -0.48170603841554      -5.00594408756491
