43
C13H24F3NO2 optimized with ForceField in AMS.
N         2.00156128015507       0.40899946087975       0.06454475463574
C         2.23660312193159      -0.90930120970440       0.71271546690536
C         3.11514689828835       0.57707457413796      -0.91827846934264
C         0.69248280715732       0.43985078671962      -0.65725225465729
C         3.68530902974416      -1.28311409613496       0.47564676088552
C         3.99587453435157      -0.66239667908649      -0.86025865928662
C         2.06986323542171       1.49516730224450       1.07661503005087
C        -0.54932200501014       0.26913737983934       0.24867306650312
C        -1.81646614022468       0.09716216256161      -0.59920075834257
C        -3.05796654938157      -0.07880096043166       0.28303738764818
C        -4.32301959765815      -0.20900593102945      -0.57352352883883
C        -5.56246870961257      -0.39597285947906       0.29629427830629
H         1.60968387045195      -1.70894418143244       0.25419124730593
H         2.01211323120448      -0.90604277168341       1.80395740245788
H         3.74991883313924       1.46680880866918      -0.69641251443305
H         2.75964675536667       0.71912402805914      -1.96523234591268
H         0.67761334076190      -0.36396816570080      -1.43031218529494
H         0.58624269633011       1.40479146562101      -1.20459928554040
H         3.83206129852061      -2.38507424434654       0.46045417976404
H         4.32759632869306      -0.82864803303221       1.26212281650693
H         5.07461707116883      -0.41060673725938      -0.95278569765397
H         3.70788213746201      -1.36577500204056      -1.67340097416709
H         1.33933534380069       1.33600418144474       1.89752946213414
H         3.07575146399505       1.53491817339134       1.55235974496457
H         1.86561510204270       2.48473294516475       0.61042130444677
H        -0.43273456153091      -0.61642176856630       0.90836954740422
H        -0.67682283487754       1.17151877216372       0.88383855944423
H        -1.70550480422542      -0.79619382659598      -1.25298808543901
H        -1.94744450876050       0.99316118306991      -1.24576544122859
H        -3.15973693863228       0.79970781612490       0.95798487373208
H        -2.93867467490017      -0.99264855939612       0.90640398331439
H        -4.45279072516399       0.70646702877820      -1.19136878620762
H        -4.22714636708134      -1.08239812160347      -1.25514971381656
H        -5.69301291779823       0.47435641791099       0.97422385425986
H        -6.46088981012796      -0.47992713358334      -0.35099259717151
H        -5.47255497038864      -1.32321489292246       0.90145059297555
C         0.00735068798329       3.41825297940505       5.48456529727617
O         0.89314247963219       2.97216122927423       6.19676484069337
O        -1.10176278353546       3.61553576172190       5.95416752640021
C         0.27320754298499       3.72505366485942       4.04058093970705
F        -0.56689504344290       2.96766521467754       3.24523520752388
F         1.58685755388659       3.43477016777147       3.71554241407262
F         0.03731515237833       5.06641044643878       3.80253139581440
