37
C11H20F3NO2 optimized with ADF in AMS.
C         2.76325884909649       0.53080695469792       2.37378691830829
C         2.21533192920323       1.09385562496018       1.07726369810221
H         1.43451253144835      -1.67345862217704       0.46316718254039
H         0.31944070914895      -1.45693837401380       1.87286158144931
H         3.28886863314751      -1.46333113305219       1.71031483417081
H         2.32163051824782      -1.45605695931081       3.22308784883050
H         2.27122770108284       0.97609593487615       3.25384463629823
H         3.84064080619786       0.73029420116880       2.46080586431922
H         2.01034788477049       2.17313747893594       1.06413287552640
H         2.84727875549919       0.78510708647248       0.22855641906298
H        -1.07852072807840       0.35546576510276       1.62614423343118
C        -0.16492899546497       0.95280221111361       1.71688303551566
H         0.16291716245739       0.96657536149478       2.76256185348136
H        -0.34999506042572       1.97578904504742       1.36517775848751
C         0.52987799307652       0.38234161520053      -0.59398182730577
H         0.47211625787274       1.44886378219867      -0.86523752718331
H         1.40449586992524      -0.07387189959524      -1.09287604910750
H        -0.71779097717311      -1.38190678230943      -0.53974134520870
H        -2.21421104152463      -1.21522849247281      -3.99862857747645
C        -0.88362480416497      -0.43024620412575      -2.46782446160177
H        -0.89068737107021       0.59321354625827      -2.88353158980097
H         0.01339879344637      -0.92124200867230      -2.88002439296450
C        -2.13922888359088      -1.17751625269319      -2.90156801225362
H        -3.04834697714403      -0.68942480449399      -2.51477933754583
N         0.90323772891612       0.34497247806883       0.87519081316832
C         1.21156193628083      -1.07889459186203       1.35738041497841
C         2.46251836725438      -0.97266338588142       2.24611130673220
H        -2.12660082017224      -2.21477823929317      -2.52997498361160
C        -0.74790692378306      -0.35426304221299      -0.94363149824030
H        -1.64204777564094       0.13977730373428      -0.52331019385006
C         3.99349763695951      -0.91774094985295      -1.79390223918651
O         3.14452579727518      -0.98645867916428      -0.84647418682630
O         5.01487930227356      -1.56824581448651      -2.02619503656749
C         3.63268988379063       0.20643356555048      -2.83382516040776
F         4.58450239195266       0.42579850353254      -3.77070211131700
F         3.39951334689819       1.42647640474431      -2.21401524970892
F         2.46401686941114      -0.09136245718803      -3.51105276413860
