35
C11H21ClN2 optimized with DFTB in AMS.
N        -1.07012741273653      -1.78535677385395       0.27103571818368
N         1.08234278207435      -1.76224010316462       0.17078581398287
C        -2.44116334320914      -1.43717216691748       0.62808992000219
C         2.47282167795244      -1.38560102010707       0.40101357097915
C        -2.87813668323808      -0.16257297450557      -0.10562573958860
C         2.81551305153897      -0.10468919475525      -0.37068978839708
C         0.03025925001981      -1.30341558005435       0.84771941661342
C        -0.71497672978103      -2.51470907824563      -0.82789257604014
C         0.64217896105608      -2.49956609468531      -0.89159499090049
C        -2.30134006421691       1.10279484723528       0.53301521313630
C         2.27296300897377       1.15035164688545       0.31658103317906
C        -2.64019962327266       2.33505103276141      -0.30219641244125
C         2.50712252356585       2.38673632388854      -0.54796518197681
H        -3.07489934340411      -2.28050604226892       0.34161380946547
H        -2.48952399844442      -1.30875003398816       1.71367995269589
H         2.61683827260801      -1.25255005799776       1.47751797315412
H         3.09501124618301      -2.21701310527120       0.05951841973302
H        -3.97134645273607      -0.12536741332943      -0.08681154109353
H        -2.54921802707267      -0.22504366081991      -1.14605805334065
H         2.39500123105952      -0.17678637684058      -1.37688933192031
H         3.90498079673002      -0.04566635142805      -0.45100010637679
H         0.06551946531527      -0.70532861667987       1.74057199388263
H        -1.44583980146253      -2.96656025066755      -1.47455812665440
H         1.31943503103178      -2.93421218470426      -1.60497432977691
H        -2.69166199355265       1.21388760011229       1.55178274979635
H        -1.21313998664107       1.01010929333339       0.59283425350176
H         1.19718713054890       1.03490743930466       0.47667911298183
H         2.75252016445285       1.27426608049340       1.29494552257338
H        -3.72019301489521       2.43984594328644      -0.41764801168101
H        -2.18502897683827       2.24675944571627      -1.28828678834804
H        -2.25131910213380       3.22997427346166       0.18389153923318
H         1.96649940301776       2.28497034264389      -1.48858745804416
H         3.56958662550627       2.51511413763197      -0.76102516527842
H         2.14394837820405       3.27467697277223      -0.03016532285895
Cl       -0.11337277350354       0.30906902905805      -1.89874138407675
