40
C10H22F6NP optimized with DFTB in AMS.
N        -0.41924595766279       0.51613178323748      -0.15555891627087
C        -1.40385036151683       1.19082502806799      -1.06703694912026
C        -0.82717141265427      -0.90518441545098       0.07101633709156
C         0.91128047729873       0.54721970991500      -0.87268527084600
C        -2.84193338804279       1.08976495206019      -0.57694564194554
C        -2.25401617255102      -1.03626031354206       0.59265955393709
C        -3.24464294784814      -0.36749005053890      -0.35911882846602
C        -0.32409412745394       1.25879577895148       1.13162478784416
C         2.09093451043839      -0.02000034726117      -0.09040183446973
C         3.35285740798398       0.10387332795459      -0.95477264556575
C         4.58166212108632      -0.39912084586753      -0.20190701190440
H        -1.31071630206436       0.71231986652262      -2.04564496861207
H        -1.09814609542394       2.23534546119098      -1.14875350820173
H        -0.12353715494740      -1.34260734801547       0.78158048380416
H        -0.73132825386101      -1.42309140863784      -0.88754411260406
H         1.10747465009282       1.59169563770198      -1.11739546451787
H         0.77463639101714      -0.01156808651720      -1.80297701246747
H        -3.47884304801372       1.54220176240938      -1.34113683424117
H        -2.97768775582283       1.65959862915990       0.34562712345591
H        -2.33725995490540      -0.59930553435983       1.59120958680225
H        -2.47741359371739      -2.10297463494617       0.67652073505947
H        -4.25148094553710      -0.41691388552589       0.06158522874714
H        -3.24817365442240      -0.89727927853444      -1.31719781526548
H        -1.30567274817735       1.32132117370465       1.59257529908036
H         0.35639018112319       0.73374659804505       1.79676012098117
H         0.05362163005639       2.25674638447849       0.92549363756832
H         1.92370721061963      -1.06990355806120       0.17058709906285
H         2.24154287066086       0.54764822562004       0.82991830971100
H         3.49586874047059       1.15316745459826      -1.22692488895277
H         3.22243279219730      -0.47233422894036      -1.87722097173467
H         4.46300556465480      -1.44795439526410       0.07556610010373
H         4.73769871796002       0.18613577520246       0.70466213168324
H         5.46489732085404      -0.30349987625217      -0.83296677697542
P         1.91536835702328       4.17699062359226      -0.35000647112580
F         0.35700175618459       3.59806735718826      -0.71844781583388
F         2.09006545877837       2.85237271809861       0.67649769377004
F         2.49269745205368       3.22851599897316      -1.58534499349482
F         3.41827919094866       4.66636209193326       0.01531603113364
F         1.68619861884548       5.41199392024004      -1.37904362799825
F         1.27216223917446       5.02230888686918       0.88943377757796
