49
C15H28F3NO2 optimized with ForceField in AMS.
N        -1.54068984438859       0.10266663276404      -0.08671845630609
C        -2.55467287544701       0.49420404297326      -1.11991081382761
C        -1.78202610545275      -1.32327404455619       0.30894038277755
C        -0.19477801936798       0.19615133352367      -0.75108579768481
C        -1.61885228511328       0.98250376854491       1.13188101739289
C        -4.01463981966170       0.27313774436558      -0.68684189855028
C        -3.22571631267636      -1.61182839198887       0.76814539908272
C        -4.23902724798957      -1.18173951879637      -0.28793958360404
C         1.02632855223732      -0.12121425316994       0.14884878506027
C        -1.26865179758065       2.46555535223354       0.91030162949572
C         2.33477559251346       0.03344260790701      -0.63841025574560
C         3.54993945174557      -0.30064049403901       0.23603941206559
C         4.85437385205247      -0.12949816297939      -0.54980400380777
C         6.06664318151879      -0.46878704263932       0.31159476817162
H        -2.40292537339129      -0.10438513523633      -2.04899150426390
H        -2.43054400664659       1.55211315436814      -1.43113229997676
H        -1.11243573616499      -1.62352838358148       1.14336454991273
H        -1.55996089969618      -2.00622948369248      -0.54354528848251
H        -0.05158559684578       1.20708871341400      -1.19392155339000
H        -0.15281798412430      -0.50281483935861      -1.61888058271566
H        -2.63173072198963       0.96336615992366       1.57752867600378
H        -0.95954954730019       0.59240408155957       1.93711583145010
H        -4.68342031457915       0.51599510091642      -1.54073903317858
H        -4.29836490675947       0.95332154456966       0.14238803599293
H        -3.44302298316015      -1.10934645083573       1.73378338776354
H        -3.33550195949399      -2.70374612258920       0.94457496583573
H        -5.26864487834765      -1.30349641241216       0.11239758869591
H        -4.13973541085477      -1.83300173940726      -1.18444294133438
H         1.06682985750467       0.56896593852628       1.01560608876224
H         0.96859835209872      -1.16428088988474       0.52217059759487
H        -0.22522796578755       2.60005971999640       0.56312135791168
H        -1.97084933443342       2.95300716398467       0.20575969570829
H        -1.35753022919118       3.00040878872027       1.87945291782850
H         2.42269188800032       1.08084459579006      -1.00354302563340
H         2.31949951048748      -0.64707955750248      -1.51843033663737
H         3.46972557406297      -1.35190746739953       0.59131036895393
H         3.56374046180645       0.37232277093069       1.12195494878255
H         4.84733042684026      -0.79893360284176      -1.43742514725512
H         4.94489617275841       0.92207289222504      -0.89949489972652
H         6.01712535579186      -1.52687329468677       0.64612464219495
H         6.99487366639818      -0.32778741532344      -0.28058806286286
H         6.10720705972039       0.19704953043907       1.19982263245762
C         7.14334671922194       0.67588791877667      -3.44187334703893
O         7.83674383382265       1.13231157673589      -2.54666511722340
O         7.44272193538417      -0.39177268996737      -3.95201843745969
C         5.93199549093283       1.41968951832675      -3.92068852181108
F         6.08307012499064       1.73394830784283      -5.25841391329102
F         5.76213175129989       2.58860816600935      -3.19904887164934
F         4.80959274625478       0.62768249792102      -3.76541404233901
