25
C7H16ClN optimized with ForceField in AMS.
N         0.15132693422943       0.28577576013880      -0.05419073720337
C        -0.45339644281598      -1.01546258190892      -0.44857060704311
C        -0.94491404033316       1.05146957609511       0.61319615819075
C        -1.95825771522107      -0.84908138865264      -0.42216352394258
C        -2.18089276586384       0.16719395721822       0.66494907955958
C         1.28369032209701       0.09689021178565       0.90429253466407
C         0.60566671373352       1.02676396475945      -1.25923269521616
C         2.46379400350137      -0.72115368594682       0.35215468902569
H        -0.20167424581099      -1.82151180198341       0.27856028124629
H        -0.12159042348249      -1.36444795602939      -1.45345249524957
H        -1.21202350053330       1.98344049225187       0.06155917066418
H        -0.68656677907521       1.37727689629291       1.64712621401986
H        -2.47716293532254      -1.80729270072225      -0.20077214751301
H        -2.31104001520559      -0.44450698041906      -1.39635678212732
H        -3.11458031701710       0.74670755127339       0.49711130507628
H        -2.23278318994755      -0.34670163604582       1.65076579533623
H         1.67898143962476       1.08699915704242       1.22798717573247
H         0.91957446632329      -0.41520682494472       1.82471139074962
H         1.34482439632432       0.44110582929004      -1.84508395107840
H        -0.24701689200793       1.23646060960236      -1.94334360725781
H         1.07117822371591       1.99737457614007      -0.97544511285938
H         3.18090544083765      -0.92113107774715       1.17614998577154
H         2.13209798121032      -1.69771606827922      -0.05548398961250
H         3.00938778468714      -0.15664620315820      -0.43091255198216
Cl        3.10050371545203       0.74696535284731      -4.37620100345119
