32
C8H15F6N2P optimized with DFTB in AMS.
H         1.36697105087986      -1.28653428219678      -4.96629342956411
H        -0.35963302585486      -1.40661187278771      -4.52533527218226
H         0.82274745156047      -2.53489022870231      -3.80815570355315
C         0.66335725986977      -1.51626944740982      -4.16883103736170
H         2.60252251657783       1.14566784357242      -0.92719335270870
H         2.94927372024706      -0.11697386106483      -3.36895990294408
H        -1.00439440446698      -0.72222022859448      -2.05042107429785
N         0.88595110167496      -0.60275688530497      -3.06057614227804
C         0.01279365506013      -0.37444140722696      -2.08331171953382
N         0.61778798053176       0.36899741224759      -1.15913867075915
C         1.91640769988626       0.58397106316061      -1.53602324971346
C         2.08359150182397      -0.02869725942404      -2.73683677262413
C         0.04920821353117       0.71279955751740       0.13944293037063
H         0.54929690609291       1.61701470780584       0.49720040443576
H        -1.01476337206229       0.92456161770930       0.00027656401204
C         0.25540709926049      -0.45712807851616       1.10689139045684
H         1.32218033971556      -0.68727662333491       1.16844083254495
H        -0.24957977239436      -1.33980180933479       0.70834516443246
C        -0.29211001145708      -0.12472107975867       2.49601473558881
H         0.22109897317958       0.75819466306502       2.89349415709788
H        -1.35911301830396       0.11300727467776       2.42170701998863
C        -0.09477883966372      -1.30560590198446       3.44490940056457
H         0.96506619234366      -1.54157116733030       3.54239271850462
H        -0.61187857626778      -2.18710073361209       3.06581027474108
H        -0.49180832831472      -1.06265838006089       4.43051548524863
P         1.24907552664397      -3.69178243686833      -1.00363778034444
F         2.54469241382836      -4.65707711447710      -0.84262849705487
F         2.22168313890830      -2.45769356577814      -1.57044633161048
F         1.02814868296308      -4.18853288102821      -2.57013776391975
F        -0.08174785086400      -2.65602463004209      -1.19807125802240
F         0.24206244444598      -4.85190636807706      -0.46922723605063
F         1.43793005812463      -3.10615012194086       0.52517090583615
