55
C17H32F3NO2 optimized with ForceField in AMS.
N        -1.08928224970158       0.82297540277804      -0.17613811682279
C        -1.57388897099828       1.86456209226149       0.78788715500496
C        -2.06585992049192       0.72613867638451      -1.30948778505713
C         0.21030784665143       1.28879876841207      -0.77242174804687
C        -0.93166560693441      -0.49119830866459       0.54082639617526
C        -3.02043278408853       1.64496263436528       1.27731412747769
C        -3.51197441620939       0.44268604788956      -0.87259492653597
C        -3.99212487928803       1.50650522008669       0.10872020909605
C         1.41354101630432       1.37040563681685       0.20100354338967
C        -0.34394899458973      -1.65099241666561      -0.30110876908489
C         2.66063254788398       1.88725327853914      -0.53009179530685
C        -0.21231651512075      -2.92091993890263       0.54984144498151
C         3.87852009818258       1.92962989793269       0.40080778229304
C         0.36993035974154      -4.08018439344521      -0.26748496295833
C         5.11503247465507       2.44371455332875      -0.33219486881997
C         0.48470993330674      -5.34571808787571       0.57736775527953
H        -1.53070083231917       2.87671752873981       0.32314570730983
H        -0.92917405262339       1.90056841599364       1.69211445319431
H        -1.76018498120028      -0.04560568376862      -2.04334555045597
H        -2.08315124489336       1.68314658716362      -1.88249109425938
H         0.07797792460109       2.30086776605762      -1.22118497767907
H         0.49945085309014       0.63722452342667      -1.62718044501267
H        -1.90280395478802      -0.84319097110822       0.93924039645237
H        -0.29868284792025      -0.35868174336794       1.44555292606952
H        -3.32688736552075       2.51872409945521       1.89225168677712
H        -3.08583871561075       0.75443503654529       1.93623052846175
H        -3.60795914072247      -0.57000112388115      -0.43026637223491
H        -4.16756002938740       0.46263047925905      -1.77007867966930
H        -4.08262632067938       2.48299405063842      -0.41623566517840
H        -4.99721123621461       1.22874685167739       0.49267141084889
H         1.19042150204183       2.06028620810378       1.04003928994369
H         1.65014838073210       0.36922159629694       0.61489700595036
H        -1.00646642677071      -1.88330745382638      -1.15894375941010
H         0.66221151749285      -1.38929241501021      -0.68581251720112
H         2.46056768024664       2.91006562403179      -0.91861197768969
H         2.88471827241365       1.22003251326091      -1.39143773516147
H         0.45249339763337      -2.71498606545656       1.41738200643370
H        -1.21532474834111      -3.21127235580044       0.93324160492518
H         4.09044073005248       0.90919772752230       0.78782335124267
H         3.66857285349688       2.59768711915875       1.26410337299991
H         1.37981671758540      -3.80497553251807      -0.64213496062945
H        -0.28473545240081      -4.29029379586727      -1.14113693761031
H         5.98016409180123       2.46185474223929       0.36362220641793
H         5.36242679741406       1.77881670331287      -1.18706317198078
H         4.94119494909465       3.47434222034585      -0.70834866381278
H         0.91175740984467      -6.16618012403511      -0.03688492832006
H         1.15172793186801      -5.17003802370927       1.44805350437093
H        -0.51706402499925      -5.65945826835955       0.94064048479613
C        -2.08458153068088      -0.67583571708376      -5.52623381020813
O        -3.07465880055702      -1.36112537282130      -5.32438895979878
O        -1.74038381474733       0.14643490300245      -4.69322909586015
C        -1.29088952479510      -0.83510246357126      -6.78865373912803
F        -1.25952483196636       0.36896255136736      -7.46818940164711
F        -1.85994597150795      -1.79846047527217      -7.60376092468798
F         0.00151330453423      -1.21485201858308      -6.47586404312357
