33
C7H16F2N2O4S2 optimized with DFTB in AMS.
N        -0.57608577095033       0.45790038087084      -0.10947498976062
C        -1.40104689177075       1.42696500437075       0.68939042101085
C        -1.42284516632242      -0.69292601409077      -0.57116197362934
C        -2.12787920709525       0.76568421832617       1.85224545688096
C        -2.14876062730982      -1.38687310100421       0.57411073935659
C        -2.99646174151326      -0.39245554266371       1.36534964378898
C         0.58503217160917      -0.02024874114920       0.68497578356480
C        -0.05542705364408       1.16186612373591      -1.31677643678422
H        -2.12531097003874       1.86921570756661       0.00518576381924
H        -0.72701465523879       2.21135200154331       1.04049048985889
H        -0.76430237578153      -1.38789038222211      -1.09792736174202
H        -2.14937025551194      -0.28780911736464      -1.27848664069733
H        -2.76009232720175       1.53085408193904       2.30922620521229
H        -1.41885609356798       0.41913579258292       2.61059389069327
H        -1.43654943232908      -1.89280122309673       1.23346227211494
H        -2.79428276065381      -2.14905726349408       0.13056365656757
H        -3.45033580909199      -0.89724729437072       2.22112790537536
H        -3.79732699695289      -0.00771343130961       0.72951588436726
H         0.23870683718851      -0.52039203660776       1.58541426439660
H         1.16441547363867      -0.71475351564144       0.07919829360782
H         1.19909618787182       0.83730704005982       0.95416731246179
H        -0.89561249135123       1.41975696235335      -1.95906228846581
H         0.46214929083600       2.06672943122476      -1.00545859508534
H         0.62634902570995       0.49874579026113      -1.84600329147172
N        -2.93082533716578       1.81351722385219      -2.65033389419592
S        -4.20303889005154       1.49285387493703      -1.75015344113029
S        -2.47782026648243       3.33760812245376      -2.75330730593262
F        -5.45964174889002       2.01272761315791      -2.59542729045624
F        -1.84621405212862       3.61101329365785      -1.24806105589805
O        -4.33640048473441       0.06552021178977      -1.72339688292989
O        -4.28478239915764       2.18572870820975      -0.49738430485416
O        -3.49288462264375       4.32110999864204      -2.88972556222461
O        -1.32161446227434       3.37328841948010      -3.58711671101903
