44
C12H23F6N2P optimized with ADF in AMS.
N         1.32155202710016       1.92669596677642       0.33760343804311
N        -0.24481753156415       1.42833468160659      -1.08057725793220
C         2.66529452631946       2.07451658353235       0.93180261317621
C         2.73466639523503       1.44043404110143       2.31724269165120
C        -0.92034812534039       0.88929538768770      -2.27562754735424
C         2.54485502320258      -0.07966279460070       2.31929931790085
C        -1.76460107693427      -0.33694555403442      -1.93781413238489
C         1.08159526328223       1.47640766161835      -0.90042620731067
C         0.11584516359378       2.17482002961020       0.96428051030956
C        -0.86829102567688       1.85906499123909       0.07345604906725
C         3.78743242240525      -0.84687981447257       1.86461523395351
C        -0.94884789596601      -1.49869203121673      -1.37598415732789
C         3.57469844119975      -2.35789453918494       1.88287404852721
C        -1.80374769649369      -2.72774381558562      -1.08455265142987
H         2.89409281148874       3.15205255720354       0.96875553930175
H         3.35811940801719       1.58729403524418       0.23132472766014
H         3.72650658114682       1.69178507621063       2.73289934774164
H         2.00252048306315       1.93303660322279       2.98094263800372
H        -1.52596209303115       1.70202131554685      -2.70626117954991
H        -0.12076899807089       0.62332493190738      -2.97980924880990
H         1.69311166245581      -0.35592845093974       1.67116838433493
H         2.27508719649808      -0.40026877046355       3.34162095477018
H        -2.26366691341982      -0.64289270777403      -2.87483649477639
H        -2.57479376080889      -0.05815270830915      -1.23741189412423
H         1.83268352714132       1.16291781089372      -1.61908911173533
H         0.05673003905964       2.54403867528895       1.97920516708540
H        -1.94594564622749       1.89688178570970       0.16533750963120
H         4.63254843168504      -0.57573453603184       2.52602454293159
H         4.06633987262104      -0.54481274747331       0.84207246392592
H        -0.14593820306465      -1.75897735399670      -2.08456245009572
H        -0.43435325076987      -1.18031401666591      -0.45358681034343
H         2.75406491449352      -2.63555889690049       1.20508667413970
H         3.33221357723113      -2.71403869076130       2.89773807977353
H         4.47360197573778      -2.88733531903467       1.53546211997093
H        -2.58598199492123      -2.51020200332281      -0.33910347354788
H        -1.18184895887712      -3.54688274951429      -0.69376279434765
H        -2.29974370650610      -3.09353568094811      -1.99791822929942
P         3.08070223310873      -1.27145690277637      -2.14145695953560
F         4.19581543929932      -2.05327593698078      -1.23666379389899
F         4.03054248711648      -1.34675860684432      -3.46413298024753
F         2.32258268351066      -2.67087760106162      -2.52901842030852
F         1.92725138405178      -0.41060442188670      -3.02638604380376
F         2.09172225189847      -1.12185630525657      -0.79467832929561
F         3.76476513570967       0.21224064173736      -1.72107502043992
