34
C10H22ClN optimized with ADF in AMS.
N        -0.50531587858308       0.26659673509928       0.18427848427691
C        -1.50064879153099       1.13017094518523      -0.58612771383848
C        -0.79725369841055      -1.20545598239812      -0.08293735422504
C         0.86619362727665       0.60972324202077      -0.38184454355766
C        -2.94676211410228       0.76151120570212      -0.31113200436367
C        -2.24331939388382      -1.57608633580362       0.19614341024901
C        -3.19110092699173      -0.71194262599875      -0.63350108133230
C        -0.56365567991584       0.56921027779359       1.63890216971475
C         2.03259703868166      -0.12692648042921       0.24624018830454
C         3.32715996760117       0.26563104402978      -0.46972898540806
C         4.54329381794136      -0.43873345781347       0.12391728044942
H        -1.25409075703268       0.93749608810688      -1.65403225887659
H        -1.26924236547262       2.17172662049567      -0.31310753989118
H        -0.10093897356512      -1.77829270441385       0.54440061860804
H        -0.56549834073285      -1.33668921565234      -1.16386380498637
H         0.97315442992315       1.69910120199345      -0.25080532706904
H         0.77527258013001       0.37607785238443      -1.46611682523209
H        -3.56491553876923       1.40978312411539      -0.95555110807370
H        -3.24114094644650       0.98612077440616       0.73057490948272
H        -2.48575136725260      -1.49841334031746       1.27214031843646
H        -2.35237265802681      -2.64082730172474      -0.07136341619485
H        -4.24044764393273      -0.98456734305544      -0.43647010446112
H        -2.97849782144461      -0.88129375111899      -1.70434344453446
H        -1.58594857554014       0.43264676339186       2.00339030689347
H         0.11051939788948      -0.10836679076226       2.17436337332306
H        -0.24957266183589       1.60983190026258       1.79172787592381
H         1.89989993579405      -1.21583615624562       0.14329148261645
H         2.13662001104372       0.09941885381179       1.32190435969103
H         3.46059281158780       1.36041079689989      -0.40943255587304
H         3.22505661857585       0.01882595345045      -1.53999025469855
H         4.44058569045638      -1.53254801903996       0.04346569833354
H         4.66390294728090      -0.18974022898802       1.19068527857688
H         5.46851422097182      -0.14919492064392      -0.39645360589223
Cl       -0.40266479798394      -0.46894595744358      -3.29097502907167
