56
C16H19F18N2P optimized with ForceField in AMS.
N         0.35830249103456      -1.59000440978612       0.31349995237006
N        -1.76849403216865      -0.94662892458100       0.27949326422256
C         1.75532951827597      -1.71583929095147       0.71863351950952
C         2.64705287666094      -0.74161849616299      -0.06083427562703
C        -3.00792469684879      -0.26163489771105       0.64009492602562
C        -0.62485695382761      -0.96710465118788       0.99087357959165
C         2.26825785346375       0.72182884758744       0.20707628959205
C        -0.18313014586506      -1.98819757004101      -0.85518027218362
C        -1.50402855681900      -1.59112276199350      -0.87550310788099
C        -3.24948150560345       0.95371172069818      -0.26490168023635
C         3.21959838398387       1.67873451214093      -0.50373730035449
C        -2.12681594933333       1.98548476321193      -0.15490594585597
H         1.85787594134645      -1.52625524872716       1.81023158792695
H         2.09203089503579      -2.75296609269976       0.52000927219164
H         2.56773663375654      -0.95721830623436      -1.14885646088831
H         3.70227001027534      -0.91130975409479       0.24656477473801
H        -2.96582978311570       0.07135494762055       1.70074873281866
H        -3.85887483569495      -0.96959595705621       0.54315532015781
H        -0.49519118692386      -0.49006437482956       1.95449075980685
H         1.23742776016757       0.91713194173214      -0.15778003348689
H         2.29982746117957       0.92633039385703       1.29946908429028
H         0.35002733339091      -2.50374007043270      -1.64337651750023
H        -2.20870831782039      -1.73234083101690      -1.68444114122148
H        -3.34431256116599       0.62466882877640      -1.32220346848789
H        -4.20726354231098       1.43399863304103       0.02959410529562
H         3.20106761181899       1.49781819498022      -1.59967568299126
H         4.25527522688536       1.54449314013111      -0.12556559498363
H         2.90390519062406       2.72596315568068      -0.31147707638045
H        -1.17888319134878       1.57145068131952      -0.55851149130423
H        -1.97490256152023       2.28399623435798       0.90417680529513
H        -2.39174386292548       2.88761474654411      -0.74508152220963
P         4.12626196828230      -4.42973989448960       4.40768458208527
F         5.82158530563132      -4.71211466842480       4.50260963144656
F         3.76819132168087      -2.83665828361811       3.85465612106375
F         4.19804614181421      -6.12888090900335       4.66681957963129
C         4.59927767267675      -4.53227267506176       2.52986656182919
C         4.72125261339004      -3.63497553595922       6.06893040819457
C         2.27571929003363      -4.86198849567907       4.76751841173204
C         5.28266404204763      -5.83034306974043       2.02151075433250
C         3.68194378492373      -2.83094576512217       6.87615320135597
C         1.49336608915800      -5.57230135832509       3.64479841913821
F         5.46543721887150      -3.48983130628576       2.22215084001436
F         3.46816879646889      -4.34956901772443       1.76603556849101
F         5.76476183749013      -2.74923850151260       5.81488500592614
F         5.19517976384493      -4.63825109825664       6.90283704488722
F         1.58681729376417      -3.68964285114528       5.02122101611730
F         2.18635798415493      -5.64481070168567       5.91083506377379
F         5.38547110284223      -5.76288640243290       0.64287579264002
F         4.55821182789573      -6.96182915299491       2.33110411834611
F         6.56343889991931      -5.96385676696473       2.52668266991439
F         4.32573866810792      -2.21344583827349       7.93437285047061
F         3.09615701339502      -1.84369479430089       6.10630423484460
F         2.70860490115953      -3.65134964166395       7.40981630693707
F         1.17560384084105      -4.68500037797212       2.63306646884497
F         0.30321680959842      -6.05343479059197       4.16159041846632
F         2.18834193230037      -6.64141731254381       3.12411754447680
