23
C7H10BF4N optimized with DFTB in AMS.
N         0.43500059771478      -0.02011137061432      -0.34325919277345
C         1.87921920318761      -0.24043823783791      -0.50958241764394
C        -0.00604573566325       1.22822188236241      -0.13082994335155
C        -0.41495825431265      -1.05597418489464      -0.42018004636196
C         2.60821721947131      -0.02503140428401       0.80957023508896
C        -1.36003496643485       1.47278730269228       0.00336532473311
C        -1.77246800534185      -0.86078401055325      -0.28756390844688
C        -2.26140919320816       0.42393757336459      -0.07535629740837
H         2.02729832426348      -1.25720698722869      -0.88030443496962
H         2.22711489173411       0.48372798164551      -1.25303797869947
H         0.73240028449815       2.02720676509946      -0.09418904940787
H         0.01336798439566      -2.03551620637440      -0.59601604768339
H         2.46163118036013       0.99499927624471       1.15883748578885
H         3.67237336998854      -0.17358636516021       0.63667618031470
H         2.25920237613350      -0.72676726955306       1.56745216752767
H        -1.69451458969968       2.49000129541067       0.16199595128433
H        -2.44048419473283      -1.70991017808829      -0.35615928747795
H        -3.32647911809908       0.59569010244709       0.02300141617838
B         2.49829601445713       3.05766159132962      -1.21418559741531
F         3.06445709861034       4.06414619039217      -1.93456010680384
F         3.45176182937714       2.16677450022031      -0.68591717895059
F         1.61137401390120       2.27192877925972      -2.02308348048370
F         1.71908983659926       3.54673384812024      -0.13499774613809
