32
C8H16F3NO3S optimized with DFTB in AMS.
N         0.09542877095801       0.29783567793550       0.64881975685221
C        -0.16617692995997      -0.95815697316746      -0.11660384560582
C        -1.25035001533575       0.66180383749512       1.20749988788272
C        -1.54276340606932      -0.76761293196892      -0.74945858795551
C        -2.25756806809326       0.26818978260701       0.13292320361666
C         1.08901287813093       0.09280117185626       1.75714298318156
C         0.55710414456759       1.38678893444712      -0.25421741089547
C         2.40958384224048      -0.50078372926662       1.29641794226989
H        -0.17519207892885      -1.78334891966947       0.59909336743748
H         0.62601717965321      -1.11798596903560      -0.84812973517989
H        -1.26030246009673       1.72389058874361       1.44565663246341
H        -1.39678552385241       0.09182394554519       2.12574575570610
H        -2.07920332675265      -1.71753652172093      -0.77345724723430
H        -1.44878340116679      -0.40563980154331      -1.77547826280029
H        -2.55871030404806       1.13525640063633      -0.45823703369819
H        -3.15207490508243      -0.15163481004358       0.59553609107608
H         1.24964585554117       1.07073654245071       2.21160540615676
H         0.61664674365326      -0.55804870340703       2.49550217139729
H         1.48568251554944       1.09022321222281      -0.73653191579335
H        -0.20427901667645       1.57359737411114      -1.00765558076785
H         0.71207150563816       2.28055987499194       0.34945422229030
H         3.05271240558001      -0.58345788721378       2.17210849101543
H         2.28314412794533      -1.49537209942546       0.86989696442840
H         2.90883559440573       0.13720727856129       0.56880951270278
S        -0.07944437631485       2.78460823608863       3.68406807136027
O         0.33153215637390       3.06912636555324       2.30554032409573
O         0.74130606838774       3.37925497926423       4.70204901704968
O        -0.42272863165680       1.38073181855884       3.88674456867484
C        -1.72485636019776       3.62931107720258       3.78288300946409
F        -1.62379343807754       4.93778828614764       3.59922594125746
F        -2.33064330001783       3.40962916819265       4.94074646190596
F        -2.51004998259751       3.13843291965034       2.80925796374562
