26
C6H11F6N2P optimized with ForceField in AMS.
N        -0.54647664814515       0.16410462338907      -0.30810052691641
N         1.63050063746935      -0.10847250837949       0.04935257404992
C        -1.93610337237503      -0.11272631772629      -0.66254164149482
C         0.48634879936389      -0.70053722033598      -0.34456232249165
C        -0.03859204972493       1.33785308597837       0.11947285087000
C         1.31313884023689       1.16784693562736       0.34208148861052
C        -2.79517006722838      -0.20002891602026       0.59377616987230
C         2.95466299330295      -0.71245999125465       0.12085451931056
H        -2.31999254973119       0.69090942474828      -1.32793430999199
H        -2.00363624213464      -1.07609805936178      -1.21369699786345
H         0.40738011484904      -1.73654278225573      -0.65293116447834
H        -0.60692105182019       2.24927220987372       0.25436181171541
H         2.01305386746095       1.92051299312378       0.68228527206233
H        -2.41783251659663      -1.00986753136424       1.25342301884742
H        -3.84546761354766      -0.42562206043633       0.31494664735148
H        -2.77007092977626       0.76258222052598       1.14622844544709
H         2.90768867137721      -1.78755583682582      -0.15445991627343
H         3.63955735482824      -0.19244955150105      -0.58078356822819
H         3.35267641280690      -0.62381268280794       1.15343147103657
P         2.45542543685812       1.52529147213763      -3.63401183914823
F         2.94035936342850       2.12221536633148      -2.09841625694825
F         1.55851119320253       0.14863084033458      -3.13383950230838
F         0.95471780781100       2.34058371934816      -3.44376165247569
F         2.20079523090360       1.16603083746469      -5.29467873970697
F         3.25341952119415       2.88345640988654      -4.32007554648953
F         3.83093399288674       0.49802441289992      -3.56172265045827
