31
C9H16F3NO2 optimized with ADF in AMS.
N         1.06283990405734       0.69494184558947       0.01637992960694
C        -0.24310419896638       1.34490908134917      -0.37473150026801
C         1.04561505512583      -0.77122481617322      -0.38398301415873
C        -1.45322562306462       0.63494369253454       0.20876688016628
C        -0.15663574023392      -1.51737142070200       0.16876519741972
C        -1.47322155888090      -0.83636706487019      -0.20688004898701
C         1.32379369365018       0.82657427617687       1.49325985760997
C         2.19150491979329       1.36409753428102      -0.71803036287092
H        -0.27636648143855       1.31679233454312      -1.47649787454575
H        -0.17872594381980       2.39582973453304      -0.05462469653703
H         2.00016908444417      -1.19179209356880      -0.04156821566115
H         1.02872421426348      -0.77512080904911      -1.48614066741860
H        -2.35298439255209       1.16020577622133      -0.15200517254035
H        -1.45794611789998       0.72820903190230       1.30789449688242
H        -0.07141964407232      -1.62581905675740       1.26267087978686
H        -0.11432221552050      -2.54031428936397      -0.24032097520752
H        -2.32454728048707      -1.35474201233808       0.26251357401514
H        -1.62153344864472      -0.90027857354349      -1.30110706970398
H         0.56428801531120       0.27206081306087       2.05117574130325
H         2.34311548816784       0.43022882993705       1.66986304619941
H         1.27780620000739       1.89386801973137       1.74669647074726
H         2.02861642447864       1.23143690102866      -1.79519672784178
H         2.18168287341750       2.43048842404641      -0.45700297964257
H         3.13065090645916       0.89400423453138      -0.36876435612308
C         4.99409521533088      -0.75656566767598       1.27687467310573
O         4.13276739768399       0.16350703602659       1.09908949505452
O         6.13134141443745      -0.73731315914792       1.75258075332735
C         4.46574316184915      -2.15040853752353       0.78277370640750
F         5.32219401880345      -3.18264619068987       0.95393222018452
F         4.14415824414819      -2.12104122375402      -0.56683417138792
F         3.28602920405173      -2.50387273353558       1.43070631407753
