55
C17H18F18NP optimized with ADF in AMS.
N         4.56911425079309      -0.20889908271316       0.25746332998557
C         1.51523028543736       0.47969174227211      -1.95514476321737
C         2.29342741673702       0.09455467373675      -0.69704984131366
C         0.00323667210343       0.45051166146566      -1.74414300078875
C         3.79297741426431       0.14714371823822      -0.95478224551655
C        -0.78273318420463       0.84255002522163      -2.99436914063449
C        -2.29228045491712       0.81290444313378      -2.77153993714321
C         5.05628957073350      -1.45650714397309       0.40916586456237
C         4.78067928725161       0.73814566867905       1.19552663392481
C         5.78758047599978      -1.79261046901221       1.53182594314174
C         5.47649756421960       0.44128174753656       2.34831048109276
C         6.00167128545266      -0.83577865586582       2.51677512107414
H         1.78664396532697      -0.20529642071438      -2.77937590589336
H         1.82332038311328       1.49071050536662      -2.27965544443614
H         2.03207981408365       0.78050862761949       0.12922360431687
H         2.00895170272585      -0.92277299679498      -0.37128535731362
H        -0.30371267448039      -0.56306759178703      -1.42300386030806
H        -0.26508152015512       1.13390212363113      -0.91617520569655
H         4.13222438971615       1.14700774402743      -1.25724623682545
H         4.09780661664473      -0.54743204332946      -1.74779033881149
H        -0.47250242365930       1.85406519108504      -3.31496387211964
H        -0.51354822845952       0.16012752692559      -3.82127700532262
H        -2.58533747702125       1.50814742627945      -1.96810203473409
H        -2.84043335854534       1.09973921046690      -3.68124224287091
H        -2.62765765147464      -0.19560425147394      -2.47978806707511
H         4.86390550206008      -2.15119636992143      -0.40445359265164
H         4.39587857456493       1.73008564978987       0.97074537412536
H         6.20234146138195      -2.79698930540283       1.61196429221129
H         5.64401535719666       1.22738697157987       3.08272225390893
H         6.59452183056052      -1.07541958611817       3.40066282609720
P         8.29170826509067       0.97744420111977      -1.30718611538551
F         6.73339566158337       1.40953521450431      -0.77877543593164
F         8.25796104460545      -0.27832088519313      -0.19120534318672
F         8.32299035494592       2.22386389639611      -2.41513053739530
C         7.28814665605080      -0.10667436166116      -2.65461221038966
C         8.97298524401867       2.30324987401996       0.01104231236265
C        10.10212815711627       0.30677560797455      -1.83164980835714
C         6.38030973379327       0.65741602238306      -3.68558820098821
C         9.22061996569374       1.90072812285148       1.49490729738199
C        10.80343882614296       0.88791488684385      -3.09472963308476
F         6.42608823465777      -0.97630629765223      -1.97751558405425
F         8.04619868732906      -0.91330942062960      -3.46206517623779
F         8.06119925126143       3.34199063751725       0.09853774181510
F        10.14024892557187       2.87402216200774      -0.42997642691647
F        10.05119269104047      -1.05829858294876      -2.00798389242830
F        10.99540204044186       0.50191026619067      -0.80033639925166
F         5.54796549902257      -0.25344639819078      -4.28931478198922
F         7.12071438569686       1.23301298804003      -4.64901794571812
F         5.57857438319681       1.60616546097334      -3.13910539737450
F         8.03794277328891       1.57620808203139       2.10351259643143
F        10.05970378829122       0.85961105860506       1.64973493619043
F         9.74124378221825       2.95816460904420       2.17631158012899
F        10.04839358711387       0.73628815615805      -4.20757613134616
F        11.97989762807996       0.22897351633674      -3.30106712141561
F        11.08705605759810       2.19952765302945      -2.94230132622790
