41
C11H24BF4N optimized with ForceField in AMS.
N        -0.22460360304199       0.30375972565394      -0.16671962943753
C        -0.91797168656070       1.27934937407250       0.73584908708950
C        -1.12357674078685       0.00538956239437      -1.32796718277452
C         0.12342225894138      -0.93710824860572       0.60932226430126
C         1.00165869743470       0.96439487635892      -0.73399304208470
C        -2.32513723871921       0.83470877586357       1.18483369253504
C        -2.51526020097147      -0.51093286401560      -0.92756779373070
C        -3.21145066541141       0.48675059564659      -0.00758767265452
C         0.91560231364968      -2.01534861014523      -0.16878371750104
C         2.12635476263570       1.28511505754866       0.28135401071014
C         1.22721412501859      -3.21179233261110       0.72759137788009
C         3.28194419223564       2.01791077807910      -0.39761424857863
H        -0.32650489687509       1.45748183974705       1.65919195613648
H        -1.02869310736234       2.26307889468672       0.22740808551142
H        -1.28325025725031       0.92917651864374      -1.93255019584759
H        -0.65934164849883      -0.72017021139652      -2.02680472046095
H         0.70045676054436      -0.66700772262148       1.52066878009357
H        -0.78922174731328      -1.42804022511758       0.99885095967746
H         1.43664531087579       0.34096359252942      -1.54678029947410
H         0.71747013321354       1.92199813020471      -1.22949032827641
H        -2.26684448645405      -0.02659123877747       1.88194059517527
H        -2.80033157623287       1.66703454473284       1.74828300093051
H        -3.12973921504169      -0.63799146694730      -1.84532939076036
H        -2.45222751778209      -1.50802693746916      -0.44601866904478
H        -4.16755645125112       0.05200725765157       0.35503672462286
H        -3.44985483537688       1.41301588961369      -0.57553849465963
H         0.32957547762288      -2.39103978358391      -1.03075128790102
H         1.87941271565833      -1.61476881005858      -0.53999676782349
H         1.75302150056220       1.93269721221282       1.09894139034707
H         2.53659879808848       0.35507641703412       0.72320634572060
H         1.78964917373600      -3.97490177050302       0.14948043864282
H         0.28685866413665      -3.67252297060716       1.09839039579851
H         1.84738463787383      -2.89562105829110       1.59293031192198
H         4.08531287683600       2.21486133165835       0.34326515730226
H         2.93550790124731       2.98995868736073      -0.80860597974055
H         3.70337638577498       1.40085568622260      -1.21933850104916
B        -1.01220257015462       6.22440437000273       0.40669577025857
F        -1.17302795899755       4.82390277689308       0.24847413651093
F        -2.26395278602689       6.80925683189078       0.73467381186799
F        -0.53034801925400       6.78453892648136      -0.80596388783733
F        -0.08213039552278       6.47892682916697       1.44918784700268
