35
C9H17F6N2P optimized with ForceField in AMS.
N         1.00856803025287       0.32000792331903       0.47305830769453
N        -1.00803884680849       0.32685813791702      -0.46356137571317
C         2.25522308170514      -0.15519605423035       1.06989573479836
C        -2.25203711282487      -0.14013155220779      -1.07252655474514
C        -0.00331050683185      -0.43759499762061       0.00706246254368
C         3.44071482420485       0.07273864917485       0.12519502965950
C        -3.44626213276587       0.09983839269142      -0.14261940655430
C         0.63189320219141       1.60201101116901       0.29243166131164
C        -0.62013531608450       1.60626123358966      -0.28871248378927
C         3.31423717005443      -0.74567877088767      -1.15886900184356
C        -3.32577764283930      -0.69379990661628       1.15698146030759
H         2.17554090222730      -1.23796546159429       1.31214202497462
H         2.43320495049186       0.38699727328751       2.02378376055022
H        -2.17864775761679      -1.22450088928674      -1.30922213107603
H        -2.41523556859131       0.39961400856517      -2.03048561916637
H        -0.00720021500182      -1.52044642310278       0.00795266945991
H         3.52069509940176       1.15165186010040      -0.12963393839514
H         4.37524212948452      -0.22566591157381       0.64765874486105
H        -3.53261329800177       1.18288779795451       0.09158962099025
H        -4.37487326454063      -0.21257566893230      -0.66746900321423
H         1.22130114636221       2.46862453230964       0.56337682735126
H        -1.19980889651030       2.47676242891656      -0.56804780649730
H         2.44482351668595      -0.39858506084637      -1.75648622183943
H         3.18872747247315      -1.82357619775280      -0.92107761618791
H         4.23248339410287      -0.62178335910623      -1.77039921030026
H        -2.47096815493298      -0.31928792894626       1.75874029256326
H        -3.17749181060188      -1.77358371581979       0.94134791615757
H        -4.25434106164772      -0.57491880406225       1.75355659870202
P        -0.77212643776290      -3.09707526411029       4.48503732886323
F         0.38304452650644      -1.83183072680191       4.61184099317620
F         0.27498074053684      -4.18043033400639       5.31044315787533
F        -1.44565841268502      -2.70860974260534       6.01700102182919
F        -1.84780141403887      -4.40698042688422       4.20492757167453
F        -1.94154348112113      -2.02657571684513       3.82596986718189
F        -0.07551970727359      -3.41414912075519       2.94688778529628
