57
C15H28F6N2O4S2 optimized with DFTB in AMS.
N        -0.19606588893096       0.90935664818770      -0.63080397630635
C        -0.83043315563869       0.98538372390347      -1.99377060648091
C        -1.14980472811375       1.48422658457652       0.37252351747530
C         1.04105788208569       1.77076356659413      -0.68795792039496
C         0.15049503913243      -0.50713997694421      -0.25422339061945
C        -2.18381696235520       0.29675713424884      -2.07047158088886
C        -2.51751110003418       0.80909908156274       0.35162215926408
C        -3.14651003624036       0.88041691246031      -1.03917903713493
C         1.83367535409298       1.87364821399857       0.61007060027640
C         1.27512637543985      -1.12728385044316      -1.08029951417435
C         3.11842176483881       2.66783339940765       0.33245513102477
C         1.34416826250568      -2.63746981358052      -0.82568764896699
C         3.94556407084645       2.83918940625971       1.60321928114454
C         2.40312067624022      -3.27513957345720      -1.72300449385732
H        -0.13555777683556       0.54838297606584      -2.70979555331888
H        -0.94096751618054       2.04733597371409      -2.22653314251445
H        -1.25449151718525       2.54675832337679       0.13567102591822
H        -0.69697638191838       1.38530155277579       1.36084449322899
H         0.72001927497832       2.76642364003264      -1.00237638494316
H         1.66698626239630       1.35686647751902      -1.47965048758241
H        -0.75679487961926      -1.10204531344268      -0.37098011148246
H         0.41536635272769      -0.50104000051228       0.80617254116121
H        -2.08254503627009      -0.78239699777587      -1.93006381774902
H        -2.57079961188831       0.46239146272230      -3.07889521905173
H        -3.14961131453871       1.33158499938468       1.07465387246470
H        -2.43451620056800      -0.23180775299451       0.67567137218831
H        -3.36478561930852       1.92367017892942      -1.28861783627476
H        -4.08656108658280       0.32419764433970      -1.04634367958609
H         2.09905309250046       0.88228180436230       0.98677377620044
H         1.24958318682671       2.38478394220047       1.38153374746749
H         2.23555091540827      -0.67563273937890      -0.82175901937900
H         1.09907452401383      -0.96517876649303      -2.14342875257470
H         2.85625996244676       3.64886925572902      -0.07398479503055
H         3.70744422935193       2.14379078660966      -0.42535333830420
H         0.36816538704013      -3.08711920462313      -1.03767515673316
H         1.58109303348349      -2.82662458252604       0.22696813179317
H         4.22950280802895       1.86792948142715       2.01110254516834
H         3.37937395520460       3.38277233939541       2.36111254814233
H         4.85236294450967       3.39985708052000       1.37831436085723
H         3.38577268104351      -2.85087539057162      -1.51496918930663
H         2.16360037908342      -3.09892503060657      -2.77192938147872
H         2.44153049272602      -4.34992589222232      -1.54741320809775
N         1.85300329173258       1.04967459858121      -3.64022635291338
S         1.45091088254843       0.09716520757002      -4.87544389369408
S         2.49036132162546       2.48592488536673      -3.98646793967957
C         3.01599353609258      -0.77728408083301      -5.41879144585369
C         1.09148577229270       3.54687238211877      -4.65757708195487
O         0.65566785278884      -0.96385119964366      -4.28745297758365
O         0.92811763141879       0.77238536495381      -6.03428247932632
O         3.52270134438344       2.48807167224617      -4.98644587885275
O         2.76432643885087       3.09742873818649      -2.70302901126460
F         2.69794812886831      -1.97120921886910      -5.89429206661408
F         3.80460006067421      -0.94095131337169      -4.36319379284019
F         3.65805835897581      -0.10027503866781      -6.34444006184880
F         1.23730775969831       4.78503522554309      -4.20996365098310
F        -0.06570025146138       3.07466281422468      -4.17817840157148
F         1.04124659816747       3.56645643786241      -5.96853607706317
