43
C11H17F6N3O4S2 optimized with ForceField in AMS.
N         1.00583028505269       0.35254935742480       0.47848890364782
N        -0.99816630810056       0.35618625683077      -0.48363975493513
C         2.25762981804939      -0.12557071650872       1.06154119807843
C        -2.25078744487553      -0.11691141544826      -1.06888236846080
C         0.00293748839872      -0.40592702444053      -0.00345966094651
C         3.42196296350988       0.05474827814845       0.08176923965897
C        -3.41391433597338       0.05767402536747      -0.08671707274009
C         0.62860430873705       1.63456018521724       0.29592400126904
C        -0.61789125847680       1.63677494261957      -0.29823390397533
C         3.21576246161858      -0.73969124837071      -1.20753462434630
C        -3.21049669097227      -0.75460679323886       1.19182657224304
H         2.16587417985046      -1.19999430564109       1.33521094826771
H         2.46884475754610       0.43877609492320       1.99578588542245
H        -2.15994313330918      -1.18960297820390      -1.34953550394331
H        -2.46247627639234       0.45353756583391      -1.99926875433151
H         0.00181959228580      -1.48890859815866      -0.00474061299258
H         3.54145344278691       1.13161498169285      -0.16471433348626
H         4.35740396173779      -0.29337035024906       0.57035090765529
H        -3.52829813085937       1.13201193539935       0.17297880613792
H        -4.35138294448754      -0.27981682736026      -0.57887334684325
H         1.21374407061617       2.50164389376231       0.57403263687541
H        -1.20094995836667       2.50574330520560      -0.57495632680040
H         2.34241492039536      -0.34780770111801      -1.77068567056191
H         3.05164391981104      -1.81359089836234      -0.98085945254600
H         4.11634087811694      -0.64589042010697      -1.84918332212815
H        -2.33641027665572      -0.37192233779121       1.76031405636292
H        -3.04926906157447      -1.82679682605692       0.94962626427041
H        -4.11080359919568      -0.66562542121545       1.83476215986607
N         4.86367103978745      -5.85695970719752       1.71096888371583
S         3.60468202282431      -6.39345953220176       0.80867759403910
S         4.66634077174647      -5.12370122553278       3.16404368296359
C         3.08912119316461      -5.10090672217005      -0.30249000187396
C         4.92737169343809      -6.31884129235655       4.45823078685406
O         4.04659424112763      -7.58048751757858       0.00050052333861
O         2.45203388842755      -6.78690710401791       1.69009074961370
O         3.28517645346945      -4.54238660340193       3.28597131733631
O         5.68547772935358      -4.02891319572609       3.30606852484359
F         2.05783514774347      -5.55959675977685      -1.10002426819616
F         4.15372432539990      -4.72687508483012      -1.10074756367334
F         2.65475796158083      -4.00918545004592       0.42413438869802
F         4.75221421962148      -5.71476730517418       5.68891532724228
F         6.21328815293098      -6.81798375952595       4.37210366110234
F         4.02407463901086      -7.35606547631836       4.32403954037807
