48
C12H26F2N2O4S2 optimized with DFTB in AMS.
N        -1.08341396604112      -0.25613784481614       0.23980192555501
C        -1.33962220109238       1.22267819801919       0.27729852428985
C        -1.95520934424081      -0.96060395056057       1.24472433914573
C         0.34143874150423      -0.53744531402683       0.65362816774780
C        -2.81349375345467       1.57869912857599       0.13094975129560
C        -3.43303600458153      -0.62542068362804       1.10412724772259
C        -3.64628853156366       0.88307956540529       1.20406433138019
C        -1.32306973172388      -0.80051838771221      -1.12099948131733
C         1.42329963595716       0.13604669095946      -0.18274038579246
C         2.78728066267880      -0.21874676272292       0.42537429013274
C         3.92360495837253       0.47561085895595      -0.32871119990819
C         5.28286550512021       0.11748482902290       0.28059002573680
C         6.42385848132651       0.82245374501333      -0.45021403444684
H        -0.76030197605434       1.67714799154384      -0.52819557023548
H        -0.96651380952254       1.58684051450287       1.23493692013774
H        -1.60568032594750      -0.64834477454275       2.23459653274742
H        -1.77917128807286      -2.03233435755009       1.12958929825012
H         0.43310738108399      -0.19380104351066       1.68298643492236
H         0.46420764667377      -1.62333761073093       0.63590836578840
H        -2.89343378488298       2.66288217660198       0.24260747551182
H        -3.17992499443437       1.31588225702527      -0.86627758686999
H        -3.83767702409154      -1.00588302394251       0.16109601942513
H        -3.95600690497861      -1.13182807337696       1.91930604303741
H        -3.33574742723312       1.23693491622729       2.19164413358565
H        -4.70351100910424       1.12060689344664       1.06730809051679
H        -0.70751821671362      -0.25982527933233      -1.83644983482449
H        -1.05875852449243      -1.85646984181814      -1.12736040460042
H        -2.37103858845409      -0.68363241310240      -1.38453555409330
H         1.38457611783391      -0.19658082015978      -1.22448366151961
H         1.29992880675467       1.22153097019681      -0.16108460104181
H         2.80113638878002       0.08805902029252       1.47538547911445
H         2.92893180864192      -1.30392630908199       0.39090951449442
H         3.77837768912840       1.56043927652035      -0.28629161245049
H         3.90238569602825       0.17655926318963      -1.38305236016225
H         5.43022005649295      -0.96644456642932       0.22797781141676
H         5.29293287698196       0.40602105906160       1.33645789730338
H         6.44300754378585       0.53249880521809      -1.50200319509738
H         6.30462459256036       1.90521753331152      -0.39114953062922
H         7.37878446872505       0.55336088134475       0.00155565195668
N        -0.57338894480686       0.10589733308694       3.84832805342597
S         0.64097728103177      -0.90295278301331       4.10105839348540
S        -0.27264477219689       1.66073385603502       3.86197406424528
F         0.70587325759708      -1.02174309294654       5.69845364712634
F         0.73603196025396       1.84885776954549       2.56444424057603
O         0.19370743992299      -2.18488267152416       3.65034086839911
O         1.93840658946074      -0.45546959373671       3.70511682163952
O         0.46069380206174       2.19771151913899       4.95328226648184
O        -1.47044972847477       2.30898284302355       3.41933825439493
