25
C5H9F2N3O4S2 optimized with ADF in AMS.
N         0.67886448523496       0.95419811978876      -0.67557574742293
N        -1.14693167562709       0.86297992780393       0.49014436864840
C         0.15426870538605       1.17703836449679       0.53641798774034
C        -0.31921289171270       0.51787383917463      -1.52250846481174
C        -1.46741782105438       0.46324305847419      -0.78988324623384
C         2.06347799776618       1.21650418114797      -1.06720060189062
C        -2.10508560099908       1.08775296507582       1.56775383526727
H         0.68554514807232       1.62330924357164       1.37163181438030
H        -0.12719804495696       0.28383384354278      -2.56220625284153
H        -2.47503113462841       0.18030314436603      -1.06848548695757
H         2.68386225544257       1.25889925910417      -0.16722818814919
H         2.39582790390784       0.40762137334506      -1.72869906036761
H         2.11193675844073       2.19031803400544      -1.56989687944729
H        -1.56539088336755       1.14232918154674       2.51834049262655
H        -2.61476885787590       2.04356758416009       1.39052888490753
H        -2.81752393071546       0.25396690264821       1.58481382906982
N         0.91570013606854       5.32933175278205       1.45238923325305
S         2.21588009803188       4.52513295283972       0.97930972836219
S        -0.51660610605226       4.62851372293613       1.42083774870461
F         2.02247823965278       4.44286654748819      -0.68012095398875
F        -0.40931789095730       3.49948228169476       2.67811125196449
O         3.38001887609083       5.35691340802732       1.16198480571330
O         2.26093353470078       3.11294071210918       1.36199716384387
O        -0.79028650965276       3.76580350894070       0.27304820853789
O        -1.51919323249562       5.56021395762970       1.88259227639146
