35
C11H21ClN2 optimized with ADF in AMS.
N        -1.26315585555109       1.30406898935413      -0.28756412140752
N        -2.56858318294511      -0.35099917644772       0.23234838695532
C         1.13877209901202       1.86970591678368      -0.39050650321943
C         1.60159884887973       0.41947162390196      -0.46024981193259
C        -0.24828661831498       2.12793165395993      -0.96738693018423
C         2.98988235314141       0.21820542178217       0.14668547297585
C         3.47576107341429      -1.22754781145572       0.07050031855694
C        -1.74114701523922       0.12871491905414      -0.71329407110063
C        -1.78209321976763       1.60024710248600       0.95956837559295
C        -2.60897283416691       0.55766400939695       1.27667718827711
C        -3.38836950876920      -1.55925329090645       0.11954091879572
C         4.85986849343787      -1.42536423000835       0.68470869811862
C        -4.76460116185612      -1.24887312743509      -0.45022757215095
H         1.83810100015241       2.52101290966368      -0.94378990717352
H         1.13097761282431       2.24906242052545       0.64709876226843
H         1.61073718783708       0.07409272660440      -1.51309025380512
H         0.88793048968676      -0.22996239101777       0.08106269565555
H        -0.52289026454918       3.18036336655301      -0.75539390423931
H        -0.31154811645292       1.89444440933932      -2.04252375751219
H         2.97063941997683       0.54800211048366       1.20142549588055
H         3.71301205251835       0.87641623351289      -0.36880386654298
H         3.49052560527801      -1.54729173322004      -0.98788139261847
H         2.74548357430797      -1.88084127688283       0.58275455702297
H        -1.49603931070752      -0.35908775731267      -1.64809179126628
H        -1.47752247344669       2.58795558493124       1.42170827945167
H        -3.22597372446063       0.38482238925551       2.15063092630756
H        -2.83966272372033      -2.27697321289207      -0.50822334687357
H        -3.45738076427150      -1.99416971915866       1.12843137325549
H         4.86117743297658      -1.14293902179012       1.74988493692282
H         5.60877297475569      -0.79918557010183       0.17358752675905
H         5.18968687397822      -2.47276103416242       0.61182238467091
H        -5.29488662489419      -0.52646672452251       0.18703518799744
H        -5.36580445914739      -2.16782382104145      -0.50992392139802
H        -4.67762988421948      -0.82084014291417      -1.45982777020634
Cl       -0.59506187449745       4.39867562578176       1.38977277046619
