30
C8H20ClN optimized with ADF in AMS.
N         0.08699402854428       0.01259707498566       0.14801930718325
C        -0.96473561214472      -0.34103711529846       1.18280932288589
C        -0.53335866109926       0.34313625772321      -1.20794206866179
C         1.01305975000344      -1.18295818748321      -0.02192652182005
C         0.86008585089349       1.24056540106630       0.62929349076297
C        -1.94502092729527      -1.42965777537818       0.78553532846112
C        -1.56158187874575       1.45481737439889      -1.17795183960885
C         2.19314035032061      -0.97625136635970      -0.94842599817533
C         1.73690113742226       1.01379183115288       1.84313102817730
H        -0.41419418848298      -0.63364706215234       2.08806545064463
H        -1.50061318090934       0.59302094830651       1.40352845937792
H         0.31777584594434       0.69213347843371      -1.84212861512695
H        -0.95175520020009      -0.60071015322912      -1.58827623550174
H         1.34564972486428      -1.44738348866117       0.99369148383278
H         0.37661213102459      -1.99949963440301      -0.39127561715338
H         1.43334988601115       1.60435799668610      -0.26035897811909
H         0.08988930588414       1.99202455149504       0.85257734326284
H        -2.62148580613634      -1.59725725362173       1.63836161850806
H        -2.56193745950448      -1.13945574451093      -0.07597904722157
H        -1.45433325449249      -2.38836153543086       0.56738315263634
H        -1.96407572751194       1.54133252256631      -2.19922179201286
H        -2.40898241312137       1.27952618969003      -0.49714653304224
H        -1.08585395491293       2.42090395626982      -0.95605967260038
H         2.79614240500905      -1.89802650787769      -0.91539116737830
H         1.89132248896528      -0.78368608241987      -1.98618568578233
H         2.82380068803923      -0.12548617218459      -0.65975667105755
H         2.18176441834723       1.98906373850627       2.09609746500219
H         1.18763688027220       0.66714266751498       2.73193655070326
H         2.57149373287163       0.32686430620011       1.64240279655449
Cl        1.94874647993972       2.10548847331504      -2.36102302983061
