44
C12H26BF4N optimized with DFTB in AMS.
N        -1.87354187068868       0.24438218294868       0.01511054235911
C        -2.27050310081964      -0.81196848069616      -0.96673703530951
C        -2.94013879731897       0.14211898944046       1.06852104261924
C        -0.54038492520499      -0.06144273811038       0.64084655381338
C        -2.75570322487678      -1.98220212008443      -0.11400468329673
C        -3.22124617003698      -1.34997934651880       1.20706526170054
C        -1.88698118588437       1.59264885895074      -0.63774030784285
C         0.65240617511529      -0.04809113468951      -0.30759409880604
C        -1.47432353737962       2.72356435869438       0.29374995967044
C         1.90906143835847      -0.37488254674016       0.51165944223162
C         3.17428371342806      -0.24974108379787      -0.34043629269050
C         4.42371150287055      -0.58243500714332       0.48125461417627
C         5.69387802507483      -0.45477803386094      -0.35789421462934
H        -1.42848560655600      -1.05875236833755      -1.61237607349884
H        -3.08304256701461      -0.40831257123104      -1.57595896422583
H        -3.81762704912489       0.68177039906999       0.70427901232963
H        -2.57866485041420       0.59085752577947       1.99341518398675
H        -0.62998403496565      -1.03624339788243       1.12073115862423
H        -0.38871289700537       0.67974262058605       1.42399983963860
H        -1.94654819035269      -2.69442627507673       0.05841381014263
H        -3.56690363233375      -2.50596353883342      -0.62297547088986
H        -4.28540648175987      -1.51834386220600       1.37996287401721
H        -2.66525129662077      -1.75663391531397       2.05397789833948
H        -1.22116550329296       1.54168862247882      -1.50306688541408
H        -2.90649152886906       1.75575346163227      -0.99863610235806
H         0.53804993068309      -0.78513027422850      -1.10896403707201
H         0.76878271266091       0.93722694381833      -0.76841397574302
H        -1.70224624805372       3.66771010242451      -0.20045702077230
H        -2.01433861443452       2.68057758920187       1.23711487215437
H        -0.40805560687324       2.69499177947203       0.50768218239190
H         1.82750886579510      -1.39330387829757       0.90422648980151
H         1.96674029865283       0.30593195265356       1.36607545799837
H         3.25361712575236       0.77210388385756      -0.72817031195690
H         3.10836471412346      -0.92780372936871      -1.19928038290998
H         4.48422095858671       0.09503931746270       1.33900748063773
H         4.34344221980409      -1.60416901939050       0.86707241863067
H         5.80255049748282       0.56308924748126      -0.73550850476061
H         6.56779511323421      -0.69504652186810       0.24804501742190
H         5.66218539115201      -1.13821068217732      -1.20799303072802
B        -0.62124746013078       0.58279426969887       3.74397493597008
F        -0.67324895818278       0.71036798095070       5.09908554255252
F         0.68878771318898       0.58397063443504       3.24522531794435
F        -1.32661529866875       1.64853546777375       3.09615693894621
F        -1.25494089920018      -0.61950856955763       3.30970373510574
