25
C7H16ClN optimized with ForceField in AMS.
N         0.84188316510895      -0.00635932199502      -0.04291427962881
C         0.09346941475928       1.21115995518001      -0.46830780731589
C         0.08463843367345      -1.24259954828030      -0.39151706153168
C        -1.34423491030604       1.26343666765733       0.07812243179955
C        -1.35183310439228      -1.25238165286147       0.16045593999979
C        -2.11399673590071      -0.00541189223721      -0.28286729854259
C         1.14943670773843       0.03817354817815       1.40986932690091
C         2.13286582798605      -0.03454498890704      -0.77306791504502
H         0.02985215250734       1.25302890257660      -1.58070407719367
H         0.62891637097798       2.13207101695277      -0.14396316734372
H         0.61514871280656      -2.14549551919583      -0.01347788880685
H         0.01750554441743      -1.35072579227238      -1.49928796676310
H        -1.86798657539132       2.13846702163701      -0.36368942171881
H        -1.34132460655893       1.41021557350491       1.17719998288016
H        -1.34889643836346      -1.32725293754785       1.26797905632110
H        -1.88069519867944      -2.15165150262518      -0.22378318713139
H        -3.11052559709055       0.01367605456793       0.20887298412278
H        -2.27300782692631      -0.04121765379750      -1.38299473106575
H         0.23486028237245       0.06135715792207       2.03327161268057
H         1.73637389567553      -0.85483903779347       1.72047697638765
H         1.74295885604869       0.94461961626168       1.66400572280980
H         1.97288939997534      -0.06591306182551      -1.87426016994094
H         2.74189474217909       0.86965747727258      -0.54692686241002
H         2.73147058030085      -0.93118690001370      -0.49485077822059
Cl       -1.82610396921839       1.34689602064143       4.09918825295653
