64
C18H26F18NP optimized with ForceField in AMS.
N        -1.63201899605177      -0.30875644736051      -0.18811912345888
C        -1.90899531087560       1.10714954248979       0.20468256729053
C        -2.64630704402676      -1.22494543618759       0.42509827573222
C        -0.29566964446497      -0.73361054454057       0.34829824183456
C        -3.35272996436113       1.55441050774824      -0.08401473617389
C        -4.10990590288929      -0.81652070670502       0.17104228959846
C        -4.35378093508731       0.62714083235093       0.59448967440602
C        -1.64303983755519      -0.45995955069826      -1.66908754233211
C         0.92766778004556       0.04135337651225      -0.20073826873819
C         2.22740869534809      -0.48318390486523       0.42498114872304
C         3.44783397659671       0.25426050710052      -0.13966405257807
C         4.74566627041190      -0.25909846837278       0.49411126944975
C         5.95713492071452       0.48662475932826      -0.05775025325798
H        -1.23855179754089       1.80833432503590      -0.33757622014486
H        -1.71780644590869       1.24968489238256       1.29311351177145
H        -2.51062879046172      -1.26550869362260       1.53113313766747
H        -2.50703823432603      -2.26554866879716       0.05187543146381
H        -0.28415585734169      -0.63373529478039       1.45857513425097
H        -0.13148336095107      -1.81538250252717       0.13323334868879
H        -3.49771952805385       2.58596831443002       0.30352060324908
H        -3.54158780862547       1.58510358165271      -1.17821425177361
H        -4.38797545408661      -0.95671891800407      -0.89383621634784
H        -4.77623666190469      -1.48025257645728       0.76356793906132
H        -4.25597384689407       0.71479688962779       1.69924958220852
H        -5.38705946738860       0.92667166937700       0.31485657221078
H        -1.01289050131145       0.31017600880937      -2.16242983987561
H        -1.27483717803685      -1.46549433469950      -1.97128777570216
H        -2.65549836088510      -0.33753728436117      -2.09927662607805
H         1.00311847959765      -0.08398776185518      -1.30036658138957
H         0.84116865989614       1.12155479714527       0.03661047241016
H         2.18901889389842      -0.34005634362976       1.52763239012342
H         2.32799475606587      -1.57067696180546       0.21342539604863
H         3.34469967614811       1.34289921634379       0.06489916227482
H         3.49296270461361       0.10435378111277      -1.24105409457567
H         4.86444992780556      -1.34504300485915       0.28497808049398
H         4.70631795948482      -0.11468986715569       1.59581603562729
H         6.07800392234375       0.27489702943916      -1.14160786314513
H         5.84150626524949       1.58107076646357       0.09285867202113
H         6.87181572969397       0.15621373605834       0.47590537675135
P         7.64263596636521      -4.48803759198188      -0.88541981492410
F         7.83212220302362      -4.45141573061700       0.82557935516892
F         6.70201643978096      -3.16060661568703      -1.45541352061710
F         8.83571015678987      -5.69633920097232      -0.60774359742384
C         8.86105445554173      -2.99375180707616      -0.67895712853794
C         6.00561305730485      -5.20425054195238      -0.14122229214673
C         7.75025210355900      -5.34611413178783      -2.61430055055412
C        10.21915213124846      -3.25971328094254       0.02553308443788
C         4.86347199217878      -5.52248572726220      -1.12804832721503
C         8.99302512726334      -5.03819263697787      -3.47339296485073
F         8.23306632900097      -2.00202384675490       0.06239311656284
F         9.13777472852119      -2.44959306442218      -1.91730523169411
F         5.47244274477410      -4.29706714029163       0.77023038549761
F         6.29643190230713      -6.38068690083094       0.53578530456019
F         6.66194533492304      -4.95260550029750      -3.37197847449326
F         7.66855906109509      -6.72374782203769      -2.46297588157230
F        10.99920529820039      -2.12110108002772      -0.07537183633064
F        10.91940031220510      -4.29790053061057      -0.55016767537328
F        10.04753137971418      -3.52744038450511       1.37190458017259
F         3.73652762367358      -5.86908218789117      -0.40305702110621
F         4.54309908383761      -4.42473012030808      -1.90426851494526
F         5.17690556420657      -6.59568574656829      -1.93787440714105
F         8.91892860460252      -3.76350507596233      -4.00322848323908
F         9.03574362031384      -5.92549520786846      -4.53459354921682
F        10.16420254078356      -5.17858955148991      -2.76308901000435
