40
C10H19F2N3O4S2 optimized with ADF in AMS.
N        -0.22138264327186      -1.75196916869272       0.30749185694006
N        -2.21265164336123      -0.93194889656942       0.04453978704155
C         1.09821041072486      -2.04911217266909       0.87626518934371
C         2.19938446661873      -1.23529153349017       0.20325299277013
C        -3.47708494017326      -0.24765661967105       0.33607468787748
C        -1.13899984768958      -0.93773682197474       0.84323582783284
C         2.05351233645176       0.27314107048532       0.39820219786536
C        -0.72624533732395      -2.28456506527758      -0.85950567789977
C        -1.97880938627941      -1.77052500822877      -1.02290662857418
C        -3.60235030324152       1.06471372836477      -0.43171268912646
C         3.17215100134044       1.06654712147316      -0.27367621098510
C        -2.51877261960001       2.07705752041020      -0.07383562574451
H         1.02919814528638      -1.83852222812327       1.95241888223461
H         1.24281809073575      -3.13410583111432       0.77104994304316
H         2.23114522309713      -1.47430407286151      -0.87552592888524
H         3.16043001715672      -1.57638017235163       0.62723848225347
H        -3.50653277948581      -0.10269468942706       1.42604050323886
H        -4.28020201074706      -0.95546870949052       0.08332084416219
H        -1.06657441561767      -0.43876260036339       1.80157070602683
H         1.08120553700006       0.60507361293211      -0.00771518026332
H         2.03691569266678       0.49646798146783       1.48099931071229
H        -0.18167301694241      -3.02249342993106      -1.43482646844566
H        -2.73651818919510      -1.97704711164323      -1.76766584911056
H        -3.58832562897644       0.85819492597813      -1.51671159475598
H        -4.59956371416109       1.47826980842772      -0.20416939680112
H         3.18440375014482       0.89001503347776      -1.36106705793506
H         4.15783412061761       0.77842543813883       0.12441746263265
H         3.04574439929585       2.14700701347350      -0.10906466205357
H        -1.51470801560235       1.68885496742963      -0.30579768623984
H        -2.55083858483267       2.32657200802780       0.99888376300426
H        -2.65049007159322       3.00976584505851      -0.64224467508442
N        -2.64505634526767      -3.22708093348965       1.90195442599266
S        -2.39205928014348      -2.69648227817203       3.38667595914236
S        -2.07978738452829      -4.63427943520009       1.35640435289659
F        -0.72207478322919      -2.43707380449051       3.44844146802145
F        -2.73218824097243      -5.75485049195929       2.35623985171147
O        -2.91050008049143      -1.33336408687354       3.43446669653824
O        -2.62682643356851      -3.62283298142257       4.47109813462060
O        -0.64129814653541      -4.80232285485189       1.50626564262567
O        -2.69783709720579      -4.86671930710616       0.06489179657632
