45
C11H24F2N2O4S2 optimized with DFTB in AMS.
N        -0.41099394901970      -0.41362211393765       0.18244105298912
C        -1.55437257281527       0.13191175983246      -0.62340015864272
C        -0.59704854761415      -1.90029265924716       0.35126811372244
C         0.83691060833359      -0.16426024598537      -0.62882681192057
C        -0.31776805261430       0.23357729701785       1.53844706357821
C        -2.92201646633363      -0.20125492275979      -0.03966735537219
C        -1.95339530858415      -2.27194846457640       0.93630654237894
C        -3.09141062955560      -1.71374946870398       0.08888042376083
C         2.13465225773976      -0.66625597458429      -0.00161054528979
C        -0.01909942070368       1.72353737708410       1.52654996205337
C         3.32891673902224      -0.18292843158944      -0.83243777573483
C         4.63827043743970      -0.68324007240403      -0.22454388228490
H        -1.46946233612532      -0.30448772618780      -1.62291855657438
H        -1.41968692552967       1.21206245030937      -0.70604442841579
H         0.20113469173072      -2.26116669928743       0.99995475372626
H        -0.47925183267805      -2.34570390977249      -0.64066917865793
H         0.89006099767995       0.91342517820316      -0.80359760101296
H         0.68286557940490      -0.65542032340456      -1.59366333152483
H        -1.26200364682127       0.05215973414055       2.05140448667537
H         0.46528852908772      -0.29566153236491       2.08671929919316
H        -3.67417858642522       0.20801600359324      -0.71927700016276
H        -3.05474956458919       0.27884346484470       0.93317238763395
H        -2.04245249038006      -1.91209839417791       1.96246451170683
H        -1.99793550735781      -3.36304053413684       0.96826935894577
H        -4.05032132886849      -1.93854892743784       0.56062935412753
H        -3.08227224592178      -2.17136960647269      -0.90588335369262
H         2.14107087356095      -1.75669977249887       0.02558120225833
H         2.24443332153370      -0.30119363540172       1.02092455456184
H        -0.03728895310988       2.05935742642253       2.56350100581370
H         0.96774691350678       1.93872659854548       1.12057886270309
H        -0.76504503207371       2.29230466319135       0.97331981317869
H         3.33241106618336       0.91245607832910      -0.86638126814908
H         3.23214815623912      -0.55040749552757      -1.85990584431321
H         4.65160026107766      -1.77226307710113      -0.19382533435750
H         4.75045873609464      -0.31064391609829       0.79337619256024
H         5.48118160329910      -0.33641029221496      -0.82235106766558
N         1.42276606327898      -1.90668921443848       3.21065641882257
S         2.53614261372633      -2.95626757396430       2.76613023281456
S         0.07097272196357      -2.51875188171884       3.79281871202885
F         1.89499231831997      -3.56186271182627       1.37328098788203
F         0.44128173829018      -2.99840107340501       5.27645457642121
O         3.66269323900044      -2.21190647344371       2.30288675754985
O         2.73017976331902      -4.09836934086848       3.58817889712955
O        -0.43444715554573      -3.68509452618294       3.13598227783873
O        -0.82911544786570      -1.41619979729271       3.97888211481661
