39
C11H19F3N2O3S optimized with ADF in AMS.
N         2.58039281146362       0.27455369389168       0.08114774533710
N         3.58580470413288       2.11310754872478       0.63858121833531
C         0.71592989168318      -1.29328255855705      -0.36233061165822
C        -0.33574368620487      -0.19987820919737      -0.53025815910172
C         2.11811344835090      -0.84804027272174      -0.74652268655606
C        -1.73777630100713      -0.65981776586397      -0.13893804361736
C        -2.79431017598270       0.43140309651980      -0.30118746453533
C         3.13081091773240       1.39444545697182      -0.39509242450390
C         2.72152799167217       0.25486465601019       1.45120871961748
C        -4.19199677090598      -0.02875693463833       0.10584315454380
C         3.35041179767413       1.41268357942788       1.80421610308114
C         4.33945235076097       3.35712537958730       0.52428355546648
H         0.70761216893285      -1.66723617807748       0.67808308842314
H         0.46599965940770      -2.16119030795837      -0.99701301544026
H        -0.33922713476052       0.14023185970496      -1.58351711834813
H        -0.05759310714886       0.67898169147515       0.08101114069736
H         2.15615250766597      -0.50203108415699      -1.78792104247496
H         2.87619244942121      -1.63977092610625      -0.64263016917002
H        -2.02008831332087      -1.53761241507618      -0.75045482601651
H        -1.72787939653201      -1.00569921872377       0.91267144545682
H        -2.50063041675672       1.30934364224057       0.30298742639849
H        -2.80556845290480       0.76902048497784      -1.35369071426513
H         3.28252570372339       1.63815414012537      -1.43913443516088
H         2.38496432516375      -0.57867157435030       2.05305764433456
H         3.65498110265178       1.79052022934914       2.77220986652259
H        -4.21241173626979      -0.33903795020917       1.16280126146972
H        -4.93436202124152       0.77393158760892      -0.02361364782546
H        -4.51703318883590      -0.88810371464275      -0.50188642742235
H         5.41037999038672       3.13271050209255       0.60464597611377
H         4.15063445798722       3.79308447198198      -0.46172523100071
H         4.00630577529769       4.04673825152636       1.31012262564807
S         5.96395686895695       0.15963816472379      -1.56523242836139
O         5.68150175014633       1.61745058981263      -1.56591990358025
O         5.16414060423179      -0.59742263538480      -0.57879937822109
O         7.36515123138416      -0.22621367278549      -1.70633609466456
C         5.18724818966721      -0.37533179755645      -3.19921309317763
F         5.89603209397659       0.05019712580028      -4.26997593240145
F         3.90806623035748       0.14926354825229      -3.33191801127157
F         5.05879587504263      -1.72597771029882      -3.28691922047089
