31
C9H16F3NO2 optimized with DFTB in AMS.
N         1.07183243580251       0.02571327435186       0.00038981504146
C         0.28561013502908       1.30563499322081      -0.09030331016430
C         0.16307950940430      -1.16378640296946      -0.11078191816731
C        -0.90833086398935       1.35847744282019       0.85448427672467
C        -0.98708523415337      -1.12335298341420       0.88817985933778
C        -1.81416731347157       0.14314197400343       0.68658938885919
C         1.86087786211318      -0.03274536007463       1.26159087506325
C         2.02996472304925      -0.00806108820217      -1.13708982286925
H        -0.04889811721856       1.39289404812762      -1.12886824245621
H         0.97978327767612       2.11917707989741       0.13227818347259
H         0.78073986172480      -2.05309966770007       0.03596874239843
H        -0.22803081989792      -1.16991588590357      -1.13322172753178
H        -1.45714943286500       2.27587951135354       0.62726163111047
H        -0.56779599905422       1.41358947123264       1.88952403628051
H        -0.61471188682235      -1.15911365016820       1.91444776675011
H        -1.60094417042934      -2.01106876153350       0.71560784342808
H        -2.60996411680003       0.18094590031274       1.43308062516281
H        -2.27214620803914       0.13999739326236      -0.30910879453923
H         1.18222126191718       0.01275266328150       2.11622671264609
H         2.42602447460120      -0.96247997480192       1.27917991757048
H         2.53717877569196       0.81813074323668       1.29243043217724
H         1.48066668937379       0.01969497107694      -2.07640914079736
H         2.68729131516016       0.85652261870382      -1.06649733384755
H         2.61561051692026      -0.92367515534954      -1.07773282832887
C         0.33883428720992       1.02126875270659       4.46674259236706
O        -0.01230128418878       0.21540427372707       3.59434218213094
O        -0.02653522161195       1.26421173196875       5.58960192750143
C         1.58626035034021       1.95708519177960       3.91718171599875
F         1.93759604772436       2.98741059672882       4.68488665698532
F         1.28917970737029       2.47975247841687       2.68228432439355
F         2.70679832243299       1.21753243310802       3.70861244080162
