31
C7H16F6NP optimized with ADF in AMS.
N         0.94155613845879       0.28828860735488      -0.19051878716459
C         0.19607840245223       1.61210045442388      -0.05684581912149
C         0.22342085898807      -0.59463831126842      -1.20541341111589
C        -1.26600658535715       1.41997118982009       0.30892463398682
C        -1.23874674501351      -0.81088246147139      -0.85337250077550
C        -1.97889248766345       0.51767190187722      -0.69841525347267
C         1.04706960831343      -0.39749128283850       1.13044091807686
C         2.32652629975580       0.56971283849731      -0.69533724847483
H         0.29805235498607       2.10459033866373      -1.03579274366363
H         0.74414778452531       2.19602486655482       0.69890246192826
H         0.78990098562071      -1.53784967290587      -1.24418936566059
H         0.32514637919919      -0.07337124894569      -2.16914523107628
H        -1.72196358658245       2.42376731278544       0.31178361249908
H        -1.37306896176919       1.02839366344653       1.33592884160143
H        -1.34304775181664      -1.42978072297055       0.05545858453808
H        -1.67490585245420      -1.39713719034738      -1.67866931687028
H        -3.01757030792450       0.33867394394695      -0.37937287428159
H        -2.00690240626522       1.02681179043451      -1.67469116947356
H         0.05071646812353      -0.61639419535326       1.52338469125405
H         1.60735746075555      -1.33138708986212       0.99462637693985
H         1.58387684377016       0.26215454065635       1.82404446035851
H         2.25229001425600       1.07063201746319      -1.66885461122601
H         2.83157375454683       1.21649485903678       0.03407486766060
H         2.85767058081615      -0.38660044138499      -0.79129036150875
P         0.84333855013972       2.30635995953969      -4.11472648523421
F         2.18355519697208       2.74423244373288      -4.93990101090591
F         0.13752657622337       3.75899255245785      -4.36690098768330
F         0.15078555084217       1.67045385039684      -5.45113595958375
F        -0.49001345903437       1.82368414369922      -3.19958382443457
F         1.54427290995838       0.81312189537475      -3.76732923777257
F         1.53043434277713       2.89178951568526      -2.68941340654358
