38
C10H22BF4N optimized with ADF in AMS.
N         0.62661552844291       0.05158562033436      -0.44404973718436
C        -0.66238619101876       0.40611032805014      -1.15414574581761
C         0.29875577634292      -0.91061861727931       0.69528318335917
C         1.51487984058984      -0.66227352112976      -1.45011259866961
C        -1.70546547180304       1.00573823417011      -0.22638624504721
C        -0.75331786786641      -0.36738293420872       1.64499004358109
C         1.32364544472350       1.28575638967783       0.11142976448072
C        -2.03043323730021       0.04712264287953       0.91956286594016
C         2.89541029203527      -1.04916305057670      -0.95350034214670
C         1.64286677902056       2.34550189032791      -0.92069065181451
C         3.63171301397691      -1.83616604867923      -2.03631804773064
H        -1.03368773601282      -0.53971682938986      -1.58209007153981
H        -0.40591265363642       1.07731554394905      -1.98522408510373
H         1.23338653373675      -1.12660980631405       1.23301526938901
H        -0.06107716253467      -1.82576325258354       0.19540464797658
H         1.58137385874670      -0.00008173031053      -2.32786672101615
H         0.94595121952663      -1.55663896230036      -1.75392965857845
H        -2.60258943458479       1.21783508668060      -0.83226125294176
H        -1.35831271962096       1.97608339097118       0.16700224892358
H        -0.32706889490145       0.45781848833673       2.23603595268035
H        -0.95496776320807      -1.17006626730181       2.37319984364740
H         0.67117756893953       1.68658289876866       0.89370853391147
H         2.23043732919997       0.93169199182993       0.62071591861879
H        -2.74018132441881       0.51460814319143       1.62013404299193
H        -2.52970566687188      -0.84893165807704       0.50517983558553
H         3.47979460645018      -0.15755880295118      -0.68309604212008
H         2.83262740162842      -1.64674105518839      -0.03191269571800
H         2.18722880738628       3.14728410237309      -0.39854370317462
H         2.30248995981768       1.98005950163220      -1.72103202954157
H         0.74717589595603       2.79764764217474      -1.37309908769522
H         4.63217187646257      -2.11501324405996      -1.67564357572898
H         3.09769150201421      -2.76352468071346      -2.29822289239353
H         3.75756201105305      -1.24297781074477      -2.95659610435588
B         3.22455575267856      -0.23140082448137       2.74447774056897
F         4.02141599321709      -0.28642978376089       3.88472089734815
F         1.98993602438995       0.45349106165418       2.99974441459337
F         2.89996277752562      -1.55815285031755       2.27724882455345
F         3.89624182241718       0.45785044746681       1.67392495116869
