49
C15H32ClN optimized with DFTB in AMS.
N        -1.01944922037306       0.74269053501301      -0.22935846302370
C        -1.51236944156813       1.84689964584814       0.65779349837770
C        -1.96844283667767       0.59805814828686      -1.38779022903603
C         0.30812179578824       1.14652946616656      -0.82345851767987
C        -0.90470921205854      -0.52401403227500       0.57470270577379
C        -2.94764098671229       1.64210606286474       1.13449816784596
C        -3.39917047264932       0.33205756808475      -0.95053341564445
C        -3.90279238065690       1.45437378997633      -0.04401942419611
C         1.46878223646960       1.22707739502346       0.16112785256962
C        -0.35447250156615      -1.73195061100074      -0.17849459553521
C         2.72141863804752       1.68300863467375      -0.59839141635984
C        -0.26642311484546      -2.92603627047610       0.77675884169201
C         3.93735263334415       1.74436603351422       0.33039840019947
C         0.28713490116520      -4.15354794522288       0.04582814470307
C         5.18747771359679       2.19154353543824      -0.42513777162494
C         0.39460575133863      -5.35635440290037       0.98047995664658
H        -1.44472145972061       2.77238509937367       0.07926135443960
H        -0.83841578244281       1.91678432532066       1.51403204844288
H        -1.58206646990071      -0.19796465273438      -2.03367910067841
H        -1.92078119493803       1.53877600758232      -1.94291028709387
H         0.15041559360900       2.12266737572762      -1.28991846592659
H         0.52889969045866       0.42208964489611      -1.61839664008711
H        -1.90148187233391      -0.76056298035653       0.95120896251769
H        -0.27064034228488      -0.29305761378816       1.43485808329723
H        -3.23099092112253       2.53121343627982       1.70459414581174
H        -3.00928240893163       0.78478491239550       1.81001098560438
H        -3.48220984545059      -0.63282203050821      -0.44378712832770
H        -4.01201484590217       0.28381604173872      -1.85408812146875
H        -3.96435383897277       2.38633497902579      -0.61537008392720
H        -4.90203308240324       1.21744364394680       0.32896288757331
H         1.25525756271802       1.93371952080485       0.96980776784410
H         1.66612602665645       0.24926192290422       0.60757802139266
H        -1.00507378064625      -1.98623739568656      -1.01633623648672
H         0.63624665530851      -1.52306145913063      -0.58285551173689
H         2.54297544224179       2.67059078797898      -1.03662581945436
H         2.91935086545443       0.98394932015153      -1.41654342749229
H         0.38536568470020      -2.67507229239472       1.62176641381278
H        -1.26090208217628      -3.15282674416914       1.17812463891138
H         4.11044595663747       0.75540785985355       0.76805903109907
H         3.73616306823902       2.44257725565930       1.15054726722947
H         1.27530908533531      -3.91680357864425      -0.36059811609351
H        -0.36940653407998      -4.40028852891193      -0.79416927209120
H         6.04098887025986       2.22514055261616       0.25216898788457
H         5.41239998790598       1.49632981902337      -1.23463019943987
H         5.04172207647113       3.18510233653149      -0.85114939112790
H         0.78775266782165      -6.21551211089993       0.43692587843728
H         1.06407469925846      -5.13660268938294       1.81371706952787
H        -0.58516258406678      -5.61874541951271       1.38286078281272
Cl        0.12289259655462      -0.97557014020536      -3.24598778261441
