62
C16H36F2N2O4S2 optimized with ADF in AMS.
N        -0.05113080650991       0.13939715301031       0.06860743899267
C         0.83562065276460      -0.83453120665594       0.82749218511068
C        -1.00493818527649       0.79956180400403       1.06446668352498
C        -0.81466921525794      -0.60360411675171      -1.00897867758576
C         0.78827751745814       1.22754323494858      -0.58940006901184
C         1.81160700337648      -0.19850922198931       1.80359423665917
C        -2.04156296508236       1.72897788049146       0.46263944570550
C        -1.80910912084430      -1.64691541853657      -0.52684051328749
C         1.89575663071401       0.76092322980322      -1.51559726215300
C         2.56193216709860      -1.28303512541403       2.58141029757368
C        -2.81061413015140       2.42681823327028       1.58953647584771
C        -2.50214776628245      -2.30615790865376      -1.72378143636919
C         2.64224250738189       1.99330957359991      -2.04206864498841
C         3.53116031455414      -0.67482795136878       3.59138987046344
C        -3.83019248459003       3.41972050119170       1.04229257523683
C        -3.51021686059415      -3.36711234363340      -1.29265314157618
C         3.76844361584952       1.62223096167910      -2.99949357857246
H         1.36831004377158      -1.42627114099021       0.06736049298707
H         0.15414977322385      -1.50971891162475       1.36441375408329
H        -0.37248161982346       1.37176402038927       1.75383983820468
H        -1.47763854410035      -0.02193440208415       1.62302698764853
H        -0.05682428797539      -1.07305350015558      -1.65132476860053
H        -1.32626626186903       0.16822520405759      -1.60184772752601
H         1.18140651333268       1.83728282985870       0.23348612059010
H         0.08489329065187       1.87026689555475      -1.13281372092393
H         1.29419371942536       0.46001605682890       2.51753837184548
H         2.54420746105667       0.42801432801242       1.26990844929035
H        -2.75271178594052       1.18486758308020      -0.18451463501949
H        -1.55238043534321       2.51071768366969      -0.13844747057677
H        -2.57460267721241      -1.18599963422739       0.11793421558720
H        -1.30507421191081      -2.42793752230740       0.06552514377824
H         1.49830702869987       0.19088512729033      -2.37294318547290
H         2.61344904694907       0.10736921479660      -0.99068258448572
H         3.11068121341641      -1.93774467291166       1.87869577649912
H         1.83441765481470      -1.92740251678015       3.10766874953107
H        -2.08675511123583       2.95760091177155       2.22843673514110
H        -3.31335260181004       1.67553334350166       2.22607209323463
H        -1.74250840048255      -2.76239374781234      -2.38356220603201
H        -3.01232634176972      -1.53107938114987      -2.32360594561199
H         3.04368054346884       2.56675555207559      -1.18947812322453
H         1.92476870517716       2.66848489565583      -2.53935179350945
H         2.99452891595363      -0.03405859613679       4.30821327044888
H         4.28411035391212      -0.04889959929078       3.08725118780988
H         4.06041505999556      -1.45776576285489       4.15474727470059
H        -4.59049469114073       2.91620234169307       0.42295037370863
H        -3.33068782411565       4.17942101248577       0.42078921105089
H        -4.34860032960052       3.94168936540907       1.86071510156580
H        -4.29884742961567      -2.93017660057808      -0.66004403426568
H        -3.02001587830624      -4.16778834968233      -0.71627509982106
H        -3.99542586926531      -3.82862873937032      -2.16597342155243
H         3.38484600544137       1.08004083253999      -3.87908503723624
H         4.51553453066129       0.97960832801063      -2.50617039084714
H         4.28629743385823       2.52428086146407      -3.35841297047036
N         0.49588217335739       3.61339662369487       1.50638749867636
S         0.71678009316542       4.81468500225190       0.45699275075534
S         0.88803313197368       3.77411241231942       3.06056125848646
F         2.34618205179880       4.71901268975884       0.15184718349376
F        -0.33684735510836       4.71097844086103       3.64669917072860
O         0.11458112205134       4.37896727207132      -0.79613492419740
O         0.51448868786120       6.15724898200957       0.95438345792437
O         2.09654210317680       4.51319581299976       3.35511555741712
O         0.64582079912256       2.46958827204917       3.66689244961573
