40
C12H8F18NP optimized with DFTB in AMS.
N         3.15608916586330       1.75571957567322       0.72597764993274
C         4.05853013534685       0.87993645005173       1.19047620240338
C         2.24086521307846       1.39362942180168      -0.18882003647176
C         3.19168644462105       3.14231078417365       1.19174044221490
C         4.04559448160801      -0.43116710919918       0.75837288420454
C         2.19637857033233       0.09982955748126      -0.65821280672839
C         3.11001570518463      -0.83336307559741      -0.18195428626531
H         4.80258434358287       1.25461665913909       1.88194965613261
H         1.56729255161826       2.16451120956886      -0.54254610370002
H         2.54950013825267       3.23734063381711       2.06802928645109
H         4.21502900742111       3.40500567362397       1.44799111034117
H         2.83648731200868       3.79360155920252       0.39613788134271
H         4.80395402000863      -1.11199409883351       1.12185005627061
H         1.46627909394723      -0.16532912553083      -1.41187027695734
H         3.11070712615765      -1.84772126895062      -0.56045612547355
P         6.94149883235179       1.80925219720944      -1.51549314769483
F         8.40227101824666       1.34171134351427      -0.85630892663551
F         6.12323771246450       0.94178394090606      -0.27776587410347
F         7.67357333454456       2.68549080359778      -2.73019605237858
C         7.02406574975967       3.38364424839745      -0.34508478470586
C         7.07763950820219       0.18768751742150      -2.60594411014596
C         5.10608544841209       2.30618987811284      -2.19092270380313
C         8.40223846114699       3.79845006454329       0.23785310419347
C         6.80106239263180      -1.17690711170788      -1.92017157991153
C         4.86230791961897       3.10127799873566      -3.50012105788051
F         6.21375777479578       3.23625953328224       0.73926194334767
F         6.56244072611505       4.44765494638786      -1.02421226475890
F         8.32643569411585       0.12153354456620      -3.08888291426091
F         6.25139714981599       0.25107952141209      -3.66731727154786
F         4.47112491703171       3.03262522152825      -1.22779909765105
F         4.37901789224021       1.16615927315329      -2.29393331739667
F         8.30063804274321       5.00694692773318       0.80260244359264
F         9.33970513076103       3.86306833950024      -0.69621086732943
F         8.79182883527564       2.94877963252794       1.18474295411588
F         7.50078584231203      -1.32686065445432      -0.80122526408998
F         5.50116805875673      -1.30547737041059      -1.60588240797586
F         7.10712546138979      -2.18484866887400      -2.73487613163084
F         5.34652863140863       4.33333796883224      -3.40791865297952
F         3.53895433988258       3.19991928579876      -3.70947263164734
F         5.39670003424483       2.51549638346464      -4.56099553481930
