43
C13H27NO2 optimized with DFTB in AMS.
N        -0.64775913718638       0.21686096810322      -0.14367837564163
C        -1.70632261651511       0.84909850349577      -0.99528018294831
C        -0.96927004653312      -1.24842380212537       0.01503783026818
C         0.65645096166547       0.33329028716798      -0.89857235011290
C        -0.54714958838264       0.84489880753587       1.21239759479419
C        -3.11734278195650       0.63651130963687      -0.45478746953368
C        -2.36328507663039      -1.52020864550585       0.54680643514486
C        -3.42616765753785      -0.85555910723852      -0.32261230457761
C         1.87759786148906      -0.15346951734050      -0.12036917930339
C        -0.19028364594936       2.32415164147679       1.21028493210170
C         2.98197550983692      -0.62911896470754      -1.07338461417052
C         4.01776638954735      -1.44403969454790      -0.30094409697826
H        -1.62130491196820       0.38898281179140      -1.98371666593882
H        -1.48088655508944       1.91350224852939      -1.08850333876528
H        -0.22608259144271      -1.69070627056746       0.68291202044201
H        -0.85661507571640      -1.71272195931159      -0.96496554305483
H         0.76863615784826       1.37930804072315      -1.19711857739031
H         0.52710512294614      -0.26557086706773      -1.80361347507613
H        -1.50706073396763       0.70331179203728       1.71121807011724
H         0.20708392271831       0.27864967515229       1.76208362472964
H        -3.80936342143378       1.10441858448335      -1.16053818810338
H        -3.23847397570133       1.13753351581420       0.50980627604508
H        -2.46488633632333      -1.19107344456747       1.58513388129913
H        -2.47083302057360      -2.60854848911846       0.52413107236096
H        -4.41604655154409      -0.98746592154229       0.12046939774925
H        -3.43238281988889      -1.31446010454421      -1.31626600622122
H         1.60664262211187      -1.00706815920545       0.50595997670908
H         2.25890536983110       0.64207308341498       0.52594795707213
H        -0.12247892743826       2.64735973781089       2.24901543129317
H         0.77024587473148       2.50992929724733       0.73387767142467
H        -0.95324367369566       2.92479680041138       0.71745916819981
H         3.45396676227622       0.22746074108353      -1.56739059844767
H         2.53930753881635      -1.26433996494932      -1.84781188796286
H         3.52971355343693      -2.29959642345392       0.16930844161826
H         4.48594113205053      -0.83595352955936       0.47443778830838
H         4.79119733789911      -1.80465452671632      -0.97914126837881
C         1.34392448164104      -5.32826137567405       0.25254976731101
C         0.63834821064578      -3.94983694553328       0.32572021528124
O        -0.51996387141817      -3.89222915901783      -0.12793948695083
O         1.30082475461915      -3.00946169461340       0.82711701944265
H         0.72928696021710      -6.07164308433988       0.75829526548789
H         1.44419835906134      -5.61553268397265      -0.79368483532914
H         2.32697837270331      -5.28051512679526       0.71699757998504
