37
C13H18F3NO2 optimized with DFTB in AMS.
N         1.94319654702115       0.16868543369149      -1.12600816721809
C        -1.79548736878428      -0.62609883896236      -0.96859950708802
C        -0.45095985822976      -0.05266214536602      -0.51365390951601
C        -2.91381939444910      -0.24133768028167       0.00481901756180
C         0.65585738874832      -0.40866074866161      -1.51438919669465
C        -4.26536608721532      -0.79955904040889      -0.45128255569420
C        -5.38247253947620      -0.41330868772965       0.51686020449964
C         2.60469098634870      -0.34901961535225      -0.04274929126410
C         2.26614871649113       1.45397657630078      -1.62238870376306
C         3.78329392209501       0.16072429404559       0.37846886364226
C         3.65866839259371       1.86249805945195      -1.31999372394173
C         4.34564439871906       1.27208383184861      -0.32693269029345
H        -1.72535746810317      -1.71753029861318      -1.03616059726054
H        -2.03399115923311      -0.24430292407644      -1.96749362837638
H        -0.52719710361535       1.03330858066798      -0.42360747696123
H        -0.19071829686795      -0.45224091022807       0.47129830119968
H        -2.67643295078481      -0.62668987261573       1.00243090557625
H        -2.97371923970552       0.84994922720640       0.07451994496215
H         0.40190960606644      -0.03167047621396      -2.50976738099711
H         0.77283916972638      -1.49602251322378      -1.57548408019803
H        -4.49994682761945      -0.41449809186801      -1.44951961413910
H        -4.20450883434668      -1.89121408309413      -0.52022962346876
H        -5.46808055740083       0.67185667443590       0.58775017339328
H        -6.33463954128847      -0.81498826759327       0.16938598415191
H        -5.18000656839664      -0.81082129864407       1.51244635926436
H         2.16110863953160      -1.23611768398114       0.39485603546306
H         1.99607519621708       1.55410582652334      -2.68053862936233
H         4.31436008491255      -0.28755916583289       1.20629790091072
H         4.04627760440448       2.70026502783012      -1.88459101070943
H         5.34759062343100       1.59987157311554      -0.07458071590320
C         0.81517827297351       3.42222623518416      -1.63117688021155
O         1.31454940435061       2.45914726946004      -0.91854214881402
O         1.00399688492977       3.66216283766775      -2.78792745527205
C        -0.16254967893112       4.28295437469300      -0.74948815609130
F        -0.63506892119543       5.32416258690662      -1.42344421753553
F         0.44738177674960       4.73429186703234       0.34657753336972
F        -1.20119950156687       3.53180406268555      -0.36217901012097
