47
C13H26F3NO3S optimized with ADF in AMS.
N        -0.78749064572142       0.18178642355314      -0.81424434863203
C        -1.46614379963523       1.01466113750747       0.25042394877196
C        -1.65667053734577      -1.01753673803760      -1.16326722008965
C         0.52211857196446      -0.38674790372915      -0.26529706305925
C        -2.88345205353552       1.42265154824311      -0.12027686645937
C        -3.07646524988301      -0.63286478110867      -1.53880052378780
C        -3.74336355544217       0.20392745970410      -0.44917829062212
C        -0.52853846953519       0.99393474225002      -2.04878143257669
C         1.65478876188794       0.60210874045364      -0.07113953088494
C         2.86717056743250      -0.13768247415496       0.50696192694498
C         4.07069082394219       0.78393755540405       0.68506888203596
C         5.30567396889754       0.05238204266641       1.20697926753503
C         6.50161722965619       0.98048155731587       1.40371661592167
H        -0.82438935106047       1.88800316460872       0.43175265131860
H        -1.47688815692300       0.39205852345275       1.15930021821372
H        -1.65524469805548      -1.65167410181881      -0.26186611065192
H        -1.12615855272864      -1.54022844552563      -1.97559810292189
H         0.24481065835121      -0.86995903517762       0.68590449202176
H         0.83017455812619      -1.16854449938376      -0.97537087919282
H        -3.30044032839159       1.97727758309201       0.73672828218732
H        -2.87359282023044       2.12646264235962      -0.96934735992353
H        -3.08778778029282      -0.09542742057043      -2.50078468762386
H        -3.63139238045910      -1.57100923802673      -1.70585791522227
H        -3.86862590553969      -0.41047665437073       0.46163709160012
H        -4.74956434977939       0.52018136779244      -0.76632410675955
H         0.10448834038321       1.84596862843911      -1.78081297855593
H        -0.01658258305551       0.35088124739944      -2.77796027268608
H        -1.48218487175891       1.34859590358206      -2.44912695541850
H         1.95425095025500       1.01244854999634      -1.04837669635185
H         1.36896784268415       1.43239672917118       0.59980728365055
H         2.60501345837126      -0.59599944912663       1.47956671988734
H         3.13003513207530      -0.95660092905209      -0.18585646146592
H         3.81334632934251       1.60959311482006       1.37690590504659
H         4.30975566164589       1.24900493614020      -0.28930880560650
H         5.56953403010457      -0.75185065109198       0.49704102633892
H         5.05941162462172      -0.44400150436383       2.16384855730329
H         6.77744784550259       1.47046240906489       0.45622228260384
H         6.27152587718832       1.77174089261063       2.13577846652485
H         7.38224024423384       0.42961061887254       1.76696219744233
S         2.01181489687348      -1.38394665272244      -3.32403092609859
O         2.65991733319182      -2.19269229283287      -2.27758967595944
O         2.35905046570575       0.05028758471930      -3.33082231760357
O         0.55581016765230      -1.64666232374546      -3.48481199311794
C         2.74720645687300      -2.03592207660775      -4.92395240942424
F         2.55337669874480      -3.37577675324163      -5.04566412157453
F         4.08480913937486      -1.80024806318952      -4.96827817502642
F         2.17788883809072      -1.43174098604081      -6.00258201595166
