61
C17H36F3NO3S optimized with ForceField in AMS.
N        -0.01183087481911      -0.00376367590558       0.01094128517527
C         0.83089431216863      -1.03590995589673       0.71387609214644
C        -0.88814712616682       0.67393571962046       1.03183658313817
C        -0.83292951235218      -0.69504819818758      -1.04586837791788
C         0.84251300424042       1.04239639888131      -0.65565821457322
C         1.88324179293088      -0.48789824482695       1.71237110982640
C        -1.94991577099154       1.65436032321236       0.47007462795721
C        -1.90485773878295      -1.68934216491695      -0.52938142346944
C         1.93521690345798       0.51361637946221      -1.61974871595198
C         2.66826274264256      -1.64009477774373       2.35348406881416
C        -2.76630781572177       2.27686342625525       1.61042697481719
C        -2.66520695317875      -2.31958645880794      -1.70392723407243
C         2.74431051189367       1.67944223390623      -2.20311779839081
C         3.70020644681713      -1.12051142283863       3.35061626232754
C        -3.80459797878075       3.25920175064691       1.07540749088695
C        -3.71443166959506      -3.31483899312105      -1.21604741056564
C         3.83059035849792       1.18084606242680      -3.15062753536994
H         1.35329100928116      -1.68289090760165      -0.02561375056266
H         0.18247392419895      -1.72358364393533       1.29800498090241
H        -0.26524208339840       1.26628139111090       1.73560723270674
H        -1.40725225075421      -0.08069478824057       1.66370326759055
H        -0.17093842982766      -1.27940702201000      -1.72044421290566
H        -1.33413548279231       0.05166667969275      -1.70121169937074
H         1.32903414805208       1.69128039011931       0.10634640253525
H         0.20822517042311       1.72499527459301      -1.26053784373536
H         1.38832291966949       0.07993498701300       2.52569528739162
H         2.60760119683614       0.17980466851126       1.20417942251572
H        -2.65205381163251       1.13424651874415      -0.21208262078254
H        -1.46145571483096       2.48010107696291      -0.08517770871840
H        -2.64203851156243      -1.17897802945893       0.12245779412658
H        -1.42899960807418      -2.50869297081188       0.04625587110524
H         1.47377821705441      -0.03686405565925      -2.46459937482227
H         2.63801645475606      -0.16485806384883      -1.09627953266507
H         3.19166941444495      -2.22259224387866       1.56419726508407
H         1.96772525891315      -2.32012733590878       2.88564464104473
H        -2.08740251642559       2.81799056990547       2.30527552462621
H        -3.28678532735108       1.47639122573553       2.17998757224070
H        -1.95127357285919      -2.85108172161505      -2.37041273251272
H        -3.17052254569096      -1.52389065516749      -2.29354627701874
H         3.22203079114179       2.25407548973372      -1.37993627309686
H         2.06774754486011       2.36265915132783      -2.76180774059494
H         3.20081067744027      -0.54401729818346       4.15829453962365
H         4.43867141418994      -0.46853706684858       2.83738261926448
H         4.23941420419334      -1.97657836450163       3.80817957006894
H        -4.51942652467841       2.73759912857384       0.40404546814764
H        -3.30734728871655       4.07957262197754       0.51509206798801
H        -4.37012345464488       3.70132769934526       1.92250495567118
H        -4.46404286329368      -2.80313246124374      -0.57570425674341
H        -3.23291814935669      -4.13113503640976      -0.63646523748199
H        -4.23751091670326      -3.76100546206051      -2.08801855194481
H         3.37631539596683       0.63549408115897      -4.00520905467665
H         4.53165049713547       0.50535241472473      -2.61606437895090
H         4.40418338501864       2.04618564377555      -3.54416840306607
S         5.96942066028690       0.76247154243495      -6.55192901559491
O         5.31909463321249      -0.51817457629801      -7.09600041964330
O         6.41524208820099       0.35873016380923      -5.13854114685474
O         4.76718494791165       1.68202036994054      -6.29319726081678
C         7.26452541113392       1.47873069834368      -7.59806129406855
F         6.71517971787120       1.87504918941534      -8.80192013003510
F         8.24717339527533       0.53557619162333      -7.82802040784516
F         7.81634929436432       2.57345581944288      -6.96139468590336
