41
C11H24BF4N optimized with ForceField in AMS.
N        -0.84957215389221      -0.19703401374477       0.03009642493548
C        -1.18940382986622      -1.24014149497425      -0.98665402112951
C        -1.98567626073461      -0.21853996425622       1.00158910362059
C         0.41967094057183      -0.56254222180296       0.74012042417024
C        -2.61292023146556      -1.70411390648455      -0.74055074988106
C        -2.82546468551204      -1.45035471515964       0.72496352229179
C        -0.76611537919337       1.14310393215537      -0.63685816130975
C         1.68460299117092      -0.54237863283539      -0.15279069477508
C        -0.39487887482102       2.30857693989398       0.31138492255316
C         2.89230636524738      -1.10924008392110       0.60255030642120
C        -0.48278635817325       3.64964069898342      -0.41081084794212
C         4.14269073656676      -1.11121483527823      -0.27128252208793
H        -1.08902066683745      -0.88034342877067      -2.03640043432730
H        -0.53872628673623      -2.14085786505747      -0.90021398053986
H        -1.65524716366450      -0.21877987323765       2.06560124959957
H        -2.65804705661665       0.66220356973785       0.88074223183854
H         0.31504248343922      -1.58059875250232       1.18262805032369
H         0.59363442346601       0.11562402735166       1.60457909990980
H        -3.32071406766789      -1.08830703731039      -1.33849075495764
H        -2.74929620295573      -2.77874309283643      -0.99171374174056
H        -2.44375501754398      -2.31044268135253       1.31842566673859
H        -3.89962716325972      -1.28236058001557       0.95814130703647
H        -0.02785873755714       1.11966099948428      -1.46875247213244
H        -1.74409992403651       1.37870775192186      -1.11797937714739
H         1.52381998703703      -1.14005502168690      -1.07415283683359
H         1.92246621227332       0.49928731236193      -0.45302466204334
H        -1.07284389972406       2.33756050379690       1.18933123526251
H         0.64479693595394       2.19387460386077       0.68026042972832
H         3.08770574206748      -0.49505291915808       1.50863408150058
H         2.67970878996800      -2.15242573118810       0.92209648833728
H         0.22171540679589       3.67000172180638      -1.26941568979547
H        -1.51608724269876       3.82391805953220      -0.77862860397886
H        -0.21251988931605       4.46829103104591       0.28930756006005
H         4.99052989083959      -1.54134157412566       0.30120369274577
H         3.98013667939313      -1.72934780172846      -1.17950243859077
H         4.40428050263029      -0.07530737620122      -0.57456213422950
B         7.54595023015916       0.16109124423785       0.95531680461152
F         8.81904516119846       0.74467597490720       1.19010355848816
F         6.61349755837008       1.17873124037017       0.62067882109911
F         7.11005150494602      -0.51314327129527       2.12703692164584
F         7.64124492587844      -0.76579955572391      -0.11676412307610
