55
C17H32F3NO2 optimized with ADF in AMS.
N        -0.76682132313988       0.69285382030858       0.16014514116013
C        -1.14354333965383       1.64234129811577       1.28923451546422
C        -1.96684177177252       0.47345558896146      -0.73630692365344
C         0.31496897386270       1.34526509772974      -0.68992971876249
C        -0.26990696752729      -0.62204253460417       0.76038683642765
C        -2.37009111898306       1.17659857830563       2.05595158489407
C        -3.19806566078956      -0.01585938179467       0.00930309193581
C        -3.57086680892227       0.94136269056693       1.14125654745994
C         1.62021345894824       1.59199661389854       0.03748561940676
C         0.44167158176064      -1.53835387253185      -0.21722151192775
C         2.77390000570096       1.84284355327511      -0.93443997483690
C         0.80372827052366      -2.85468128082881       0.47441885174398
C         4.09810149980006       1.98828500699422      -0.18281346340492
C         1.64388076210414      -3.75493799879169      -0.42926651541216
C         5.29451753647844       2.14120560983936      -1.11576478965245
C         1.97782984302223      -5.09681908408439       0.21558343957099
H        -1.33087206923530       2.61591967124285       0.80551174505121
H        -0.26816619041293       1.69401364580219       1.95926038264404
H        -1.65609578324497      -0.22551213394960      -1.52560722722247
H        -2.17309535322252       1.45106438254639      -1.20239851960163
H        -0.13152505260640       2.27874842587379      -1.07008514532844
H         0.46468548295353       0.67309474410673      -1.54873218613836
H        -1.15354516970520      -1.11897995962954       1.17952744553723
H         0.39348909319947      -0.35090078740448       1.60123459714164
H        -2.59244093509656       1.95659611039587       2.80226882495685
H        -2.12434899028160       0.27012995736124       2.63314699836141
H        -3.03246863600917      -1.03275426501132       0.40175656851790
H        -4.01642882516108      -0.09843375113050      -0.72574339314453
H        -3.89636728743526       1.90450855343790       0.70518544320976
H        -4.42417242592830       0.54368946700517       1.71321375652642
H         1.52641102547230       2.43884795282195       0.73650761586388
H         1.89131940830159       0.71688997351003       0.64808339181022
H        -0.17343414500430      -1.75154456063665      -1.11102922366855
H         1.37999484674990      -1.07207009098760      -0.55672289531483
H         2.58715649967896       2.74152770901865      -1.55357301119562
H         2.85010480752008       0.98742297898877      -1.63426198727073
H         1.37069213418060      -2.61699387382738       1.39206069442364
H        -0.11780510419623      -3.38632652347440       0.77769403981323
H         4.23091371974851       1.10610067180914       0.46820512904067
H         4.03607735724095       2.85555106506166       0.49711822911176
H         2.57958993905883      -3.22388721588399      -0.68133907890283
H         1.11024697095963      -3.92342828316267      -1.38392691495011
H         6.23135906115953       2.23034118070876      -0.54511932915917
H         5.38967202889374       1.26790972819241      -1.78212896710143
H         5.19780882034528       3.03810684509331      -1.74967387461989
H         2.62098941625921      -5.70524702257709      -0.43886975386392
H         2.50748489079585      -4.94980458252722       1.17010429115211
H         1.06289906234635      -5.67537914333540       0.42294109728681
C         2.24802348223427       0.53207416103813       3.04129781881084
O         2.65463520140480      -0.38193097067502       2.28563813843946
O         1.07602892730407       0.92685275753376       3.28121359455560
C         3.35539931989781       1.39084059765740       3.74286437898107
F         3.39778124538392       2.64927741528503       3.17142204587931
F         4.61099495292872       0.87335091728099       3.62966268460451
F         3.11693602260924       1.57339500128102       5.07567001754948
