51
C13H28F2N2O4S2 optimized with ADF in AMS.
N        -2.18078802518051       0.25437114975721       0.13321692287269
C        -3.23033585552422       0.39408417663625      -0.96209024991768
C        -2.57493446212951      -0.90358945447607       1.04439491579789
C        -0.87548498457342      -0.08635800289333      -0.57053118197103
C        -2.05156710348586       1.50918054753735       0.96815079258434
C        -4.63962592875876       0.55255823606128      -0.42080541928647
C        -3.99219716169110      -0.80035320521799       1.58448924731923
C        -5.01067837496095      -0.64132079140792       0.45803460622381
C         0.32857727707265      -0.31240414610979       0.32309611490492
C        -1.63307621132777       2.75580315031471       0.21521861407481
C         1.48166051914375      -0.86957516515452      -0.51772183532920
C         2.73352377264048      -1.13634642555618       0.31373298644702
C         3.86150895088465      -1.76641367746436      -0.50016568625286
C         5.11169140517643      -2.03272144540609       0.33339077194826
H        -3.14906026372906      -0.52924195049537      -1.55815258872113
H        -2.91676187271192       1.23767588780761      -1.59330966883397
H        -1.83456052209209      -0.93963161270202       1.85391792719798
H        -2.47690880506979      -1.80825062799309       0.43226617065274
H        -0.69046529488871       0.72664934031707      -1.28923340786679
H        -1.09109106528615      -0.99197195308675      -1.15527355593146
H        -3.02457226342021       1.66029071938934       1.45108438844870
H        -1.32518271958177       1.26637623543588       1.75718859030683
H        -5.31027731394422       0.62215786086668      -1.29378045924393
H        -4.75036459472819       1.50380941987773       0.13108302422134
H        -4.08223039779534       0.01997691775858       2.31853006258322
H        -4.17673712800011      -1.74019522915371       2.13204256727773
H        -6.02371634657443      -0.52043541801747       0.87235345604510
H        -5.00760705225543      -1.56090044471223      -0.15182889919136
H         0.64647228263511       0.62031647614139       0.82214186508115
H         0.09545932891768      -1.05276347405447       1.10490754228351
H        -0.63770071988207       2.66078540065711      -0.23967242453694
H        -2.35621339197622       3.04305477208274      -0.56084515929149
H        -1.58635281315301       3.58465993480847       0.93823912874790
H         1.72305655432215      -0.16737642703337      -1.33730178397329
H         1.14511799372843      -1.81016358251348      -0.98742347942268
H         2.47345480814378      -1.81085418789968       1.15105996448164
H         3.09125040324998      -0.19255699954270       0.76833728869166
H         3.49814189859022      -2.71231516030219      -0.94082911755347
H         4.11285918998493      -1.10366621968881      -1.34899259363759
H         4.88808600320403      -2.71573672179885       1.16898277646047
H         5.90792428119482      -2.49092190202924      -0.27191533057154
H         5.50767771955208      -1.09738265858536       0.76213568183882
N        -3.43367952097603      -3.49011507796905      -0.86380444761391
S        -3.62661373421487      -4.56206962010785       0.33224300459351
S        -2.12782810507262      -3.52962490777707      -1.79267084310384
F        -2.47497727759365      -4.05090202602920       1.43903451227536
F        -2.32445401876778      -4.85451068320900      -2.73244766780153
O        -4.87898182789797      -4.23472750681906       0.98652669610094
O        -3.24995299137436      -5.92581374832868       0.03276427004122
O        -0.86352444745320      -3.74222734721754      -1.10333690804189
O        -2.23699970326990      -2.39963080529691      -2.71024069940874
