25
C9H10F3NO2 optimized with ADF in AMS.
N         0.79534645839476       0.44429668171315      -0.09931506512699
C         2.06835323378742       0.70590801825409       0.59723565033850
C        -0.28205720181532       1.23697328373177       0.12218610200636
C         0.78232605350731      -0.50766607954552      -1.06977978508598
C         2.30015201279098      -0.28230851420934       1.72990218995942
C        -1.47055218685223       1.00756949964454      -0.52264921730935
C        -0.42798933651014      -0.80531185561368      -1.70980538558525
C        -1.54775278670231      -0.04803555840414      -1.44504813685433
H         2.85271630165386       0.65745539108826      -0.17406602682111
H         2.02693887617851       1.73993007521053       0.96726874485710
H        -0.14537379109103       2.03639331937696       0.84708193874284
H         1.63876778630874      -1.17029013147206      -1.10780717930590
H         1.48952915239802      -0.22740662847273       2.47195416816566
H         3.25043540539091      -0.05241357356766       2.23372109235101
H         2.35696569636973      -1.31446820902130       1.35364496894984
H        -2.32563264208903       1.64820066544722      -0.31395411403408
H        -0.44410897494062      -1.61667332447832      -2.43632657682213
H        -2.48903703183769      -0.25924739089624      -1.95454099082520
C         1.70772957107058       1.51914671521290      -2.97748311207489
O         2.12090359770602       0.35274750284960      -2.66020758510728
O         0.76280912898879       2.18736103344010      -2.53715390628880
C         2.60140297290228       2.15917781386419      -4.09786375471557
F         2.14820342929929       3.37373227787155      -4.50473257212636
F         2.67225146266591       1.36068796619565      -5.20662990079057
F         3.88635763532527       2.33957564248046      -3.64743901919692
