32
C8H18BF4N optimized with ADF in AMS.
N         0.01629150603922       0.44004748880811       0.00988769520508
C        -1.21415124625239       0.44948470494393      -0.87222798615291
C        -0.31033714853158      -0.66627414712010       1.00090591501394
C        -2.39276927099599       0.24384569613386       0.08479628032746
C        -1.78030618779123      -0.44499122981178       1.33577912420433
C         1.25948027124645       0.12722251679844      -0.79284634509258
C         0.15199564149361       1.77012139461745       0.69598148092367
C         2.51534023353728      -0.04632619097731       0.04262425412412
C         3.69354660173644      -0.42919441222271      -0.85039918083983
H        -1.10461732913711      -0.39914870949059      -1.56422157301584
H        -1.23617262227946       1.38479944399334      -1.44801118647823
H         0.36462299885836      -0.61299648351409       1.86622028776280
H        -0.14983680795543      -1.60706694932306       0.44940283093356
H        -3.16220811722605      -0.37435177774329      -0.39982701575254
H        -2.86392206878228       1.20223864683800       0.34753088228434
H        -1.86007182596058       0.18724177342693       2.23195000672877
H        -2.26560670045534      -1.40340518654625       1.56702691093034
H         1.36980141655961       0.94806913829745      -1.52195034311738
H         1.03044780462578      -0.79758819904319      -1.34964797047222
H         0.30358352711142       2.52972381398780      -0.08276653312001
H        -0.76437817488124       1.97150037160111       1.26016127619328
H         0.99086491203672       1.74001249422192       1.40390941935660
H         2.74702957029206       0.87427574788883       0.59858267125377
H         2.35765937582445      -0.81686487995887       0.81251733975859
H         4.59681293806768      -0.55991924075649      -0.23806709219654
H         3.50806286996969      -1.37646791372213      -1.38262543252720
H         3.90566619554572       0.34984255474289      -1.60017794206756
B         1.66865385772638       0.63807829237841       3.70410184796362
F         2.11718706458390       0.73878940781302       5.01643120321315
F         0.25975294538118       0.90813131885345       3.60631291569099
F         1.89155948484222      -0.68236556466845       3.17669503729975
F         2.35290834397050       1.57539378215337       2.84948467786465
