55
C15H20F18NP optimized with ForceField in AMS.
N         0.27284850488421      -0.11035976526125      -0.18028050760842
C        -0.59230804278103       0.70312751575772      -1.09504990502336
C        -0.48526115343453      -1.33442782033301       0.23921692344312
C        -1.96137706002262       1.07369428337332      -0.49984496175843
C        -1.86889467274771      -1.03767785933638       0.85281185785961
C         0.68571091373662       0.66760836544442       1.03972001009683
C         1.46527179627470      -0.53974765134552      -0.98903847557077
C        -2.71888452709759      -0.18223716795386      -0.08166915227227
C         1.54920126014052       1.91461067148057       0.77652392915171
C         2.54632194696141      -1.32720777674819      -0.22466981964276
H        -0.79245649959896       0.13635632989910      -2.03498025745789
H        -0.07975473990133       1.63264528682809      -1.41982084176973
H         0.08557995399779      -1.91646723012745       0.99460361288812
H        -0.64620548123445      -2.01089524045983      -0.63204123770328
H        -2.55657998322338       1.60874914600796      -1.27131364118457
H        -1.85268113246373       1.76741050237278       0.35894669690674
H        -1.76775490019388      -0.54049607247639       1.83977740664978
H        -2.39596687056147      -1.99960590225090       1.03285824318823
H        -0.19475079148913       1.01295751672874       1.61503889929535
H         1.23765004412792       0.01324756348969       1.74889511567796
H         1.14136858056140      -1.17997027820113      -1.84184537089494
H         1.95602301206471       0.33775794980351      -1.46484496030955
H        -3.66164565940885       0.10556399139766       0.43170725634230
H        -2.98615697031212      -0.77361793014015      -0.98536358486373
H         1.82018643704304       2.37296550424395       1.75100087445638
H         2.49685020041647       1.66460116308629       0.26278885642572
H         0.99505084604298       2.68183035918614       0.20039316724648
H         3.34621931102752      -1.61809730264070      -0.93778178815535
H         3.02399458891246      -0.71281374507902       0.56446275586699
H         2.14341768831930      -2.26167634969006       0.21326544170040
P         7.81035247115693       2.23098880573306       2.77583216661969
F         9.11692449235905       1.52177928150254       3.64440667966458
F         7.71582456123665       3.93458241522483       3.01987347935752
F         7.87699262157899       0.63476466543032       2.13812767076173
C         9.32809248701073       2.89010948321086       1.76356091992614
C         7.20427444999035       2.03353221934294       4.60290119112703
C         6.16956394592492       2.13720079339079       1.75724169561468
C        10.28872100938206       1.84180721712758       1.13877162526780
C         5.82411320804213       2.62616509822472       4.95474447596301
C         6.29634952709200       2.20115661774052       0.22202083133944
F        10.11138333204768       3.68523342062088       2.59177172890882
F         8.88215417900823       3.70182353888957       0.73957615930174
F         8.10868841064752       2.65035294689182       5.46270296100083
F         7.15767714321550       0.68252958350387       4.91754597552316
F         5.36454789828327       3.20402645265433       2.11399200321966
F         5.47903225445135       0.97671837885458       2.07975473565691
F        11.19455062973684       2.50105331321958       0.32639346369730
F         9.62725399397380       0.91632797221090       0.36078610842293
F        11.01213377753056       1.17417265704748       2.11080912323188
F         5.63911927343925       2.53316764334020       6.32322168071110
F         5.74131260518363       3.96188712742161       4.60949736472611
F         4.80125306877744       1.92151107712711       4.35258624874243
F         6.60013629852869       3.48444595193560      -0.19139790692299
F         5.08098058146366       1.86097237429931      -0.34428252619993
F         7.24100986399848       1.32250952809889      -0.25859974554223
