38
C12H22N2O2 optimized with ADF in AMS.
N         1.23061938008183      -0.62096964146880      -1.38596977447493
N        -0.25652633057616      -0.91862994326968       0.14670951010891
C         2.45594649651215      -0.15333925542076      -2.05160108486518
C         2.16562816741348       1.05868219601237      -2.93219647245695
C        -0.92813009316805      -0.80417224092159       1.44456949638022
C         0.99192272888721      -0.46626358561313      -0.07382484845188
C         1.65639564293407       2.25478425006709      -2.12845262590941
C         0.12089300428113      -1.16508404984780      -2.00706625524259
C        -0.82206090866755      -1.35179381509700      -1.03809586917042
C        -1.75826016995766       0.47522878296297       1.54077817861434
C         1.48381385639182       3.50120983726486      -2.99122922639738
C        -0.91909966592802       1.74336702416201       1.40520798153974
H         3.14238158021709       0.13650690391693      -1.23288618307240
H         2.86831665164920      -0.99580178374371      -2.62716084984284
H         1.44772953355942       0.79759552853138      -3.73384254738112
H         3.11252278030248       1.32570353539293      -3.43422148102699
H        -0.13190782379117      -0.80449149415899       2.20500162486536
H        -1.54773449171005      -1.70382046820397       1.58044705681568
H         1.65780883136145       0.02279776460962       0.76174969192904
H         0.68877632799590       1.99606746257757      -1.66267862460086
H         2.36178092915395       2.44151162607178      -1.29997040265547
H         0.10160917079611      -1.38606856490621      -3.06719198636450
H        -1.82087866635876      -1.76817163741410      -1.08815873625441
H        -2.55499361226816       0.45117433317785       0.77512490270695
H        -2.26404351932006       0.45297697857543       2.52169224129057
H         0.75027718571070       3.33316952712058      -3.79685720755265
H         2.43776097058206       3.78814124023876      -3.46215004692206
H         1.13712371157852       4.35563385579423      -2.39096252001014
H        -0.50629472717842       1.84490208627973       0.39015231717075
H        -0.06281797145267       1.73176058974939       2.09850221048184
H        -1.53240805404958       2.63481170349552       1.60419118869599
C         4.01358614847592       2.19411932952998       2.60060029128679
C         3.28779416317980       1.34179688374571       1.56224962405297
O         2.25761911414610       0.70540592866002       1.99791297767840
O         3.72678984149047       1.31371280646553       0.38301371507904
H         3.31235181815757       2.91623397238352       3.04574914666568
H         4.37157475474781       1.54926802620618       3.41766206430606
H         4.86208295632004       2.72675677487380       2.15274712248380
