46
C12H26F6NP optimized with ADF in AMS.
N         1.45558400054494      -0.21636423105560       0.40239338892174
C         2.66286676454347       0.22762981863180      -0.45297626576004
C         2.06886815317892      -0.85111589967345       1.65706337814067
C         0.63144489499641       0.98608673275057       0.80283210257952
C         0.62340070329492      -1.23524207014091      -0.36102209475712
C         3.90931330331566      -0.24667027671531       0.28566634703944
C         3.47427456655786      -0.28091613079544       1.75050052791141
C        -0.06588385566156       1.68593071539560      -0.35251612857432
C        -0.57417283166750      -1.76748372895841       0.40535801448623
C        -0.70270050384508       2.99967069460295       0.10869519098984
C        -1.22384978156267      -2.91353729789673      -0.38061223484131
C        -1.44568984927000       3.70568580594472      -1.02288290084878
C        -2.42085937503429      -3.51213965789484       0.35198771828772
H         2.61649543850247       1.32272514111254      -0.51809320839374
H         2.56473597518268      -0.21938195482532      -1.44871620893310
H         2.11669745470684      -1.93059306539541       1.46391688224251
H         1.41795480712956      -0.63896424041628       2.51416622638883
H        -0.10784350128238       0.63445861202121       1.53749516279381
H         1.32384336840550       1.67007783733953       1.31871553845430
H         0.31623920461032      -0.74932991602679      -1.29799796802142
H         1.31608899606744      -2.04522124278489      -0.61811831265621
H         4.17824277468227      -1.25624667884510      -0.05500413428583
H         4.75854284795750       0.42681390731213       0.09970187476068
H         3.47458726775957       0.72553227471767       2.20297715689091
H         4.11432348527351      -0.93252408427014       2.36385735517470
H         0.64538786724707       1.89474253673753      -1.17052888480155
H        -0.85082789575087       1.03319969873401      -0.77024534447304
H        -0.25757927457462      -2.15312774958834       1.39065882432220
H        -1.32503153949921      -0.97641237452869       0.58552045039971
H         0.08363112389306       3.66323145730352       0.51150356337716
H        -1.39898356712578       2.79535107547104       0.94190729381950
H        -1.53864780686205      -2.54149619410009      -1.37200800828882
H        -0.46198482216486      -3.68735329493378      -0.56778843302375
H        -2.25786309292653       3.07460066675685      -1.41644452507010
H        -0.76538799857383       3.93752779976862      -1.85721768730719
H        -1.89094834511676       4.65111999348058      -0.67891042702539
H        -3.20881819411448      -2.76116045173851       0.52332245401618
H        -2.12087687114255      -3.91831921172047       1.33117684189417
H        -2.86285933614742      -4.33682527572465      -0.22752139370020
P         3.32239896522306      -3.93671176000452      -1.42086059067932
F         4.91482898988871      -3.56643252226324      -1.22754053075223
F         3.54328707368377      -5.42545556353862      -0.78519796670314
F         3.03052233285822      -3.33138362626991       0.13836917636915
F         1.68752347707222      -4.21015500744101      -1.56098257440842
F         3.06358560667646      -2.38085214898195      -2.01770897695830
F         3.57598030537003      -4.47917960265246      -2.93872272179710
