51
C13H24F6N2O4S2 optimized with DFTB in AMS.
N         1.61013416831129      -0.20348309013673      -0.19988638934119
C         1.95258297653218       0.49382442117674      -1.48958607384335
C         0.63311899272212      -1.30326021118448      -0.49201481689454
C         2.88730920914118      -0.82048315475826       0.31509604940033
C         1.02944762072226       0.75239915884737       0.80613326410448
C         0.73636918456564       1.00921276739161      -2.24372659277924
C        -0.61435258360909      -0.82196658714344      -1.22463653467913
C        -0.24350179501723      -0.12529075933709      -2.53234126041830
C         2.76322405429517      -1.61882198922820       1.60844116225537
C         2.01317656542192       1.78148407451290       1.34709345520941
C         4.17113863607191      -2.05880176587773       2.03965080270222
C         4.13459478393598      -2.77072953567189       3.38905606521166
H         2.49107474792490      -0.23139408282571      -2.10438942786380
H         2.63586024911634       1.30913338343706      -1.25420225933319
H         0.35691657087007      -1.76585397363405       0.45724594512643
H         1.16331969325487      -2.03807008716824      -1.10394148874886
H         3.59501686396136      -0.00637609022605       0.45901933697671
H         3.26556861048846      -1.46076072660082      -0.48286740139773
H         0.19543224926652       1.26328200864415       0.32241531049553
H         0.62871980232033       0.15079355268380       1.62560920314807
H         1.09899129812076       1.43496756621911      -3.18272161035165
H         0.23732632026454       1.80882131411557      -1.68905961303808
H        -1.19693478420720      -0.14939031913962      -0.58890513142589
H        -1.23061393137702      -1.70107210632830      -1.43061549763630
H        -1.14360195466900       0.26829983195828      -3.00978215708525
H         0.21879092065140      -0.84613988818452      -3.21366798131336
H         2.13543462980411      -2.50320355466956       1.46571425765883
H         2.31800959939870      -1.01029890934431       2.40065345171603
H         1.44334773175600       2.51336134759261       1.91945464896729
H         2.74706316159058       1.32742417165217       2.00947680760100
H         2.53999570313389       2.30225658142425       0.55080966057592
H         4.82222312670646      -1.18171824527565       2.09939799865820
H         4.58738640925067      -2.72723403166179       1.28145148357673
H         3.52688834965460      -3.67487201589388       3.32966494971728
H         3.71445777627447      -2.11868191262698       4.15652962979009
H         5.14545806517875      -3.04799920477286       3.68643129727097
N         4.81212720989118      -0.01553374327950      -2.09947189387250
S         5.58343941338440       0.74805654650994      -0.92195484469982
S         5.58685658027771      -1.12207244720381      -2.97474172154826
C         7.07661677048612       1.69608239211655      -1.55604712208168
C         5.92986425030586      -2.61697711212925      -1.89306492671045
O         4.66359095679079       1.79266630437849      -0.49704821317192
O         6.08765442172341      -0.12490460401919       0.11958655518864
O         6.87662269670828      -0.70505220040260      -3.45624801054408
O         4.60946584887038      -1.61470963401564      -3.91027664016083
F         7.27295737349113       2.72537726115781      -0.74713717015123
F         6.84268275847318       2.14785839415356      -2.77362151814987
F         8.15057512998299       0.93780641124313      -1.55427600273064
F         6.08171865739954      -3.68096289223441      -2.66257093799942
F         4.87373605288349      -2.83181117114209      -1.09531349106656
F         7.00091469350346      -2.47082394189843      -1.14313329341409
