43
C11H17F6N3O4S2 optimized with DFTB in AMS. Optimization did not converge!
N         1.37197569770011      -0.71823371905110       0.59662600830212
N        -0.09391294502005       0.76051890046588       1.13786961115145
C         2.64094483668468      -1.43386260870521       0.47965244484272
C         3.12716337866996      -1.43429060344480      -0.97146723392053
C         3.37018414005956      -0.01613338939300      -1.49470193495701
C         1.17497227789284       0.39161945371175       1.30280707940629
C         0.21141116666938      -1.05628613876156      -0.04655233689805
C        -0.71150223894770      -0.11713826585404       0.29115314972925
C        -0.70163753751626       1.96753251732736       1.69863595024038
C         3.95005146079398      -0.03371776597417      -2.90653644406876
C        -0.24957380598396       3.19273070173527       0.91343044197574
H         3.35990200105313      -0.93086819063749       1.13096604567724
H         2.48538805213285      -2.45826259307217       0.83081843081149
H         2.39687437726420      -1.95167812577834      -1.60162643385311
H         4.06122853983879      -2.00340168124667      -1.00214919194893
H         2.43111871041991       0.54570031439887      -1.49156779674413
H         4.06637411376884       0.49353088224147      -0.82623830832311
H         1.89073761988287       0.87232304855110       1.94858572465532
H         0.13257040907573      -1.92273858032935      -0.67906655232922
H        -1.78639150148759       1.84282422566868       1.65287343806955
H        -0.38846745554531       2.04534430329051       2.74247989108177
H        -1.74386394619255      -0.01198789187440       0.00672261353964
H         3.24043889641256      -0.46676724117541      -3.61354926300107
H         4.86882708269929      -0.62124219847860      -2.93546681034132
H         4.18094955050972       0.98312459301653      -3.22253514608760
H         0.83516168955295       3.26906326916302       0.93928469848744
H        -0.68055958051029       4.08211373003114       1.37036153713446
H        -0.57939036551010       3.12528941519558      -0.12304810072603
N         4.07379959704356       3.37195583443787       2.55613426590735
S         4.04032084923426       2.41501636849914       1.27959760479010
S         3.04271365754878       2.98772243189197       3.72570886724991
C         5.52233977277561       3.09167154552227       0.39994330420798
C         3.69856648980895       1.43127251380082       4.54980242993032
O         4.34477005624049       1.01770778825714       1.55776707919266
O         2.92581457128091       2.62183367487575       0.36725485828131
O         1.72301081837896       2.57497828169537       3.26496300848102
O         3.11673168020129       4.00780834766380       4.73019086117050
F         5.59714845511028       2.51859017351620      -0.79375527433877
F         6.62441988003566       2.82046123641360       1.07451495835857
F         5.41878444925661       4.39807373423738       0.24311348857300
F         3.38916998215906       1.44982687177274       5.83538482550454
F         5.00861091172024       1.33472688096790       4.42291316198710
F         3.12980971003768       0.35996016112720       4.00093527429844
