53
C17H32N2O2 optimized with DFTB in AMS.
N         2.97819815486977       1.46365431634320      -0.18517135338620
N         3.10694091354399      -0.67100473532117      -0.22595678733174
C         1.47638492868958       3.37266489815184      -0.55501000308060
C         2.64699718762306       2.81354671057497       0.25825627069767
C         1.86969221844929      -2.31737710115235       1.15537841484321
C         3.00494556480305      -2.07796818983608       0.15724465892246
C         0.24290949953793       2.46851111239244      -0.47169079097486
C         0.52987407499863      -1.74021492736279       0.68748980110100
C        -0.94975836843219       3.07646659161608      -1.21293585555334
C        -0.52558880033094      -1.83419704387710       1.79489899833289
C         2.84825824685660       0.37268172613515       0.57198952000389
C         3.32374273403543       1.11756919302428      -1.46692127152974
C         3.40368559774776      -0.23647901689055      -1.49279283717327
C        -2.17773276872749       2.16657583655325      -1.10618255068136
C        -1.70620322311773      -0.90250739182177       1.50581566449224
C        -3.37969688618706       2.75602473060947      -1.84210155656397
C        -2.77688400957336      -1.00429782777568       2.59025440098179
H         1.23813309756018       4.36040356910012      -0.14913843610724
H         1.77786991989051       3.50340969049224      -1.60006581584104
H         2.13640628600874      -1.87312333536335       2.11786975532118
H         1.78234913763640      -3.39865357292892       1.29837912057069
H         3.53131446248930       3.44812898114908       0.14569540676525
H         2.37096832595576       2.74226402019621       1.31395245554323
H         3.95942376664829      -2.38697531875441       0.59721565553545
H         2.84363644770381      -2.65204646421892      -0.76052860603693
H        -0.01610658017681       2.31359681513922       0.57905104661580
H         0.47835931643269       1.49050931685075      -0.90505733169068
H         0.18587960115616      -2.26537006018486      -0.21037360939232
H         0.66487258529936      -0.68673139664000       0.42323462531327
H        -1.18495257664949       4.05763569659421      -0.78632448655506
H        -0.69335200032811       3.22444969012544      -2.26856153732799
H        -0.07247945657627      -1.54662484887271       2.74868456888796
H        -0.87452254409850      -2.86822156993977       1.88899865919811
H         2.59169327920053       0.31177338887051       1.73557615399013
H         3.48447020190956       1.84679675330777      -2.24143270289954
H         3.64340730165039      -0.91456359584378      -2.29334612542218
H        -1.93987517408973       1.18318104567353      -1.52668491063746
H        -2.43184235290600       2.02503437917855      -0.05065158639998
H        -2.14429518915176      -1.15172347962822       0.53277057545931
H        -1.34030339279991       0.12858423002168       1.45730659630679
H        -3.64865154956630       3.72523405049391      -1.41960097402790
H        -3.15255373528249       2.89075573598661      -2.90088539579002
H        -4.23751163449549       2.08874352770518      -1.75336970142000
H        -3.60393344359836      -0.33081720073405       2.36356005802038
H        -2.36155063216340      -0.72946093185170       3.56072313202565
H        -3.16468870232796      -2.02236544059875       2.65431748758325
C         0.66957375132602       0.84785205104761       4.73524648827059
C         1.30485177484116       0.92232820775269       3.33898208893133
O         2.26248320197795       0.11834673166775       3.12560523215041
O         0.86356285261636       1.74095075610729       2.52566995200194
H         0.54662034902825      -0.19221862151549       5.03203644131357
H         1.33753945872351       1.33502850197000       5.44492707006307
H        -0.29162540653066       1.35731186058134       4.73718626468093
