46
C14H12F18NP optimized with ADF in AMS.
N        -0.34847443933881      -1.01492298974372      -0.73795059224270
C         1.10967048844459      -1.27221325361543      -0.66086611701420
C         1.82043752358738      -0.20396789718440       0.16070070965902
C         3.31980414833739      -0.48784416092951       0.21164197064792
C        -0.81588566235928      -0.16525602913122      -1.67604672777648
C        -1.18531308535965      -1.62705791773668       0.12457519974389
C        -2.16491101592254       0.12004517092867      -1.75375906463461
C        -2.54311475539157      -1.37832317646921       0.08274623799383
C        -3.04339443840754      -0.48967302100427      -0.86462975814193
H         1.23577436313787      -2.27306719345998      -0.22817242807121
H         1.47493231562038      -1.31906773244122      -1.69427837877160
H         1.39599032626414      -0.18031055715935       1.18029321644768
H         1.63556512734641       0.78856023139405      -0.28664455980635
H         3.52293054015907      -1.47197636529383       0.66037425695943
H         3.83757173591937       0.27355470662587       0.81210098871054
H         3.75713357431867      -0.48324037194235      -0.79835499565856
H        -0.07913621714725       0.24140770636621      -2.36525798822573
H        -0.72842850230221      -2.32909544042117       0.81858603955913
H        -2.51900247864176       0.79036347187176      -2.53645666076791
H        -3.20033342574368      -1.90384389046946       0.77465865506528
H        -4.11538883582835      -0.29768666231437      -0.92895887329983
P        -0.29489934543337      -3.64733875201705      -4.17371384982246
F        -0.95046301209897      -2.70630549801635      -5.37635333085938
F        -0.46456669011292      -5.06287336261127      -5.00683269540195
F        -0.06386798628696      -2.23275466510096      -3.25681736489848
C         1.39991382257917      -3.34073776271121      -5.13197291775073
C        -2.22893693913524      -3.83607967010668      -3.54375158537742
C         0.40530610978990      -4.65319022591409      -2.53713740509588
C         2.03844547149379      -1.91617702742977      -5.12184740428925
C        -2.87710969218344      -5.07532353148650      -2.83202966580589
C         1.88092291588194      -4.83508327696564      -2.04652576119336
F         1.19807838124905      -3.61370292488042      -6.46491987672912
F         2.39878190237298      -4.19506139740980      -4.71434369062686
F        -3.00671059490160      -3.72748250651769      -4.67379187210287
F        -2.56469095609066      -2.75724141080702      -2.72802630577839
F        -0.07972376925639      -5.93740532448383      -2.55895438747149
F        -0.19867038026718      -4.01501576658306      -1.44435405008296
F         3.11645751007440      -1.89572524986836      -5.95047031899252
F         2.48999540827006      -1.55641246676040      -3.88153496368095
F         1.17706681419100      -0.96205871804196      -5.54099010018876
F        -4.23515508661324      -4.89930266153408      -2.81783385231541
F        -2.62221015885869      -6.22304986792812      -3.49018041259195
F        -2.50206030739598      -5.21263986131444      -1.53573498939371
F         2.54318647635154      -5.77898824855613      -2.73644587955813
F         1.86235023512289      -5.24024016227943      -0.73574996949973
F         2.58470663166530      -3.67214117774614      -2.07949507716799
