36
C8H18F2N2O4S2 optimized with ADF in AMS.
N        -0.34823065501489       0.39879499816206       0.29944224504814
C        -1.43271066382292       1.18521012068982      -0.43151343966652
C        -0.27524974601218      -1.00393624716315      -0.26329109253257
C        -2.77535797292014       0.47833181853092      -0.44888300271708
C        -1.61303655506612      -1.72530002360660      -0.23350671552224
C         0.96470868867586       1.12781995220827       0.03997804374263
C        -2.67187764877733      -0.93922970618637      -1.00412329874945
C        -0.63317822444036       0.37918809893500       1.77331214351449
C         2.15311539571299       0.60980607849488       0.82262347735269
H        -1.04763377586913       1.32343324376341      -1.45552102151689
H        -1.49924342248483       2.16177952913570       0.06731853245249
H         0.49030301969397      -1.54442744607070       0.30963022559171
H         0.07258368382553      -0.89361238848622      -1.30367643838366
H        -3.44763471822124       1.09806621600170      -1.06535387799698
H        -3.21502951776051       0.48100309713605       0.56056337141668
H        -1.93611707520912      -1.89167989705740       0.80795120316414
H        -1.45863769218334      -2.72250461280963      -0.67831163450873
H         1.13397679031750       1.04656347165276      -1.04474563257693
H         0.76557349839917       2.17890404087784       0.29745012284704
H        -3.64642489860511      -1.44840761168216      -0.94286066696477
H        -2.39094814962334      -0.90440656570841      -2.07338081881085
H        -1.67656041838261       0.09980150315858       1.93898411979985
H         0.03702099447426      -0.34410218060362       2.25183790265219
H        -0.47546605305240       1.39076795115572       2.16466113347765
H         3.03176438569509       1.18737691744820       0.49844794157141
H         2.03856576724765       0.77971277075995       1.90124531636874
H         2.37175350726322      -0.45124862749989       0.63606925212774
N        -2.12238174257530       4.68188964655488       2.87506889352103
S        -0.98333606216137       4.75333549953687       1.76047885135030
S        -2.81048488138243       3.27733030081787       3.22427143730133
F        -1.82822184509358       4.52957209455043       0.32989720881490
F        -1.61140583935523       2.47383561119726       4.07168185667004
O        -0.48061705089844       6.10314383515774       1.67113141725915
O        -0.05113199140987       3.62150958233035       1.73290221649405
O        -3.03587685032401       2.38813487051771       2.08731774165548
O        -3.85324017015943       3.49192809980017       4.19913285085284
