60
C18H36F3NO2 optimized with ForceField in AMS.
N         0.00187389664505       0.00246932972531       0.00160081790407
C         0.84467974299959      -1.03017399318314       0.70368437365315
C        -0.86786009816369       0.68676420093774       1.02391099351066
C        -0.82683352181955      -0.69054878169740      -1.04825393111544
C         0.85696296482334       1.04348390854642      -0.67247826685888
C         1.89596789050402      -0.48477939442948       1.70511239814364
C        -1.93449600697195       1.66471780341301       0.46487024188379
C        -1.90117625010708      -1.67834875472825      -0.52271913590097
C         1.94234657834977       0.50891536302439      -1.64299552274305
C         2.66769426797217      -1.63920825408901       2.35921003686961
C        -2.74310918890994       2.29296698315757       1.60816804549879
C        -2.66504787100593      -2.31605671607640      -1.69025776108819
C         2.73257900845063       1.67070065377986      -2.26104516765558
C         3.70160096978443      -1.12178092355613       3.35550577311842
C        -3.78734559471455       3.27133908049295       1.07721239154064
C        -3.71791343922504      -3.30211322593336      -1.19195447053317
C         3.79493881865689       1.16498770391162      -3.23316944314570
H         1.36874449238388      -1.67525836009919      -0.03637594786739
H         0.19611791083542      -1.71812050490585       1.28686432948661
H        -0.24040725856941       1.28472418423929       1.71866996869738
H        -1.38253747024960      -0.06415324989268       1.66393446622676
H        -0.17091212107996      -1.28242545199711      -1.72193930832363
H        -1.32784321814954       0.05503113264242      -1.70514962614551
H         1.35272297963294       1.69103081496568       0.08471811613113
H         0.22079644746156       1.72724592348297      -1.27393919645123
H         1.40240120727128       0.09205865617364       2.51258302180848
H         2.62729626294889       0.17360914120521       1.19501050080914
H        -2.64158056551823       1.14145922278681      -0.20936694431315
H        -1.45070629870471       2.48721691547469      -0.09895395366581
H        -2.63532598236082      -1.16106117303426       0.12650721079312
H        -1.42808957407062      -2.49533696953229       0.05810163307350
H         1.47640029776627      -0.06184790048596      -2.47111053612447
H         2.65830744637179      -0.15237679754911      -1.11529028248156
H         3.18863034378698      -2.23379266446805       1.57759705917007
H         1.95947358143176      -2.30780582344523       2.89589912201762
H        -2.06024137043061       2.83896214208054       2.29525311267026
H        -3.25931372586028       1.49552455504198       2.18562530816878
H        -1.95269047381161      -2.85669093539237      -2.34881287080511
H        -3.16710339525774      -1.52568927889477      -2.28927105252961
H         3.23074498173082       2.25564822437372      -1.45759364787904
H         2.04025876389733       2.34598237946266      -2.80992057798400
H         3.20508471569228      -0.53916717929503       4.16044728027377
H         4.44488661916156      -0.47711677929071       2.84033846935437
H         4.23476543349220      -1.97949550616450       3.81707868575811
H        -4.50633771796145       2.74590592497020       0.41352670017955
H        -3.29638560905102       4.09125136209273       0.51097770244435
H        -4.34746497683186       3.71471685402304       1.92729241170974
H        -4.44844221658284      -2.78676561813534      -0.53306575707391
H        -3.23595905942370      -4.13008482052120      -0.62966203551896
H        -4.26429812637591      -3.73216700986034      -2.05726900039063
H         3.32193526539543       0.59264741120976      -4.05935840401950
H         4.52295784266510       0.51369093604808      -2.70471614492618
H         4.34133423598329       2.02810029319682      -3.66849779391088
C        -2.24183504040953      -4.62298895609623      -4.70259314412362
O        -1.11693683982525      -4.68446811955118      -4.23209093395112
O        -3.14841828497061      -5.25190416811393      -4.18108338080337
C        -2.51580550667201      -3.78210038459115      -5.91386613049893
F        -3.01126683810640      -4.58180159717826      -6.92759574015004
F        -1.35548564814433      -3.16674674913014      -6.35138854615102
F        -3.45021485885893      -2.81173386594109      -5.60112634916581
