46
C14H26F3NO2 optimized with DFTB in AMS.
N         0.64692012340379      -0.23850990950522      -0.13531517292898
C         1.40847044333262       0.13402746560385      -1.37458692770007
C         1.68782720102887      -0.89198643078130       0.71687729925832
C         0.10153042274554       0.98130028496743       0.54772413563012
C        -0.42946342018192      -1.22291707262203      -0.49803509301107
C         2.34624808643980      -1.04024150370441      -1.62682699481796
C         2.55296929929967      -1.69793724627582      -0.25205726987208
C        -0.97919646639572       1.70904891624382      -0.24940935477125
C        -1.32698007286771      -1.68676456917527       0.64429981427464
C        -1.40484718405670       2.97817133378671       0.49572074536599
C        -2.50976650811604      -2.44648393745158       0.02454823357188
C        -2.47510823187902       3.72583398182866      -0.29766755340197
C        -3.49030410416668      -2.91365417036236       1.09628526502271
H         1.96921756387334       1.04507619954256      -1.15297357991420
H         0.71913622956122       0.32532860460884      -2.19963155933401
H         1.20818778114721      -1.49906115713380       1.48416163512699
H         2.26984604453063      -0.10137704977690       1.19649732937736
H        -0.28018488612106       0.66402097007376       1.52171468422380
H         0.95279322875717       1.64736674350174       0.71865396611411
H        -1.05048606333841      -0.74348254225199      -1.25088720924086
H         0.06154094127967      -2.08104691945614      -0.95909443593630
H         1.89898494134510      -1.74298455836984      -2.33230662202228
H         3.28803042372565      -0.68658504377992      -2.04894047468612
H         3.59790687512941      -1.65925849779620       0.06058965347868
H         2.24304817109533      -2.74451496396094      -0.27023089502479
H        -0.60298098736922       1.97664355733712      -1.23970777645103
H        -1.85257687576540       1.06977669743488      -0.39476741801076
H        -0.78372624205258      -2.33625010030611       1.33832448323076
H        -1.71403086634463      -0.83504665808632       1.20879123351418
H        -0.53518814206258       3.62816535913327       0.64500558324009
H        -1.79711689921129       2.71091381720722       1.48356801755715
H        -3.01841360302741      -1.78440365066839      -0.68413598691244
H        -2.13425532973119      -3.31019070988940      -0.53316073013988
H        -3.34951564342563       3.09147160637974      -0.44545192687357
H        -2.08838313221496       4.01588818603574      -1.27452004864148
H        -2.77989122492083       4.62296507807666       0.24132364239703
H        -3.89192991513884      -2.06122329759953       1.64586478993892
H        -2.99816023657388      -3.58328199217841       1.80364557946161
H        -4.31806452206867      -3.44742139082777       0.63016354139201
C        -1.64694318008411       0.14972996533275      -3.17820897582616
O        -2.58921127721672      -0.00908309134714      -2.40629040053661
O        -0.82331726905694       1.05421541957689      -3.30091649258107
C        -1.29910025628832      -1.15179497334938      -4.07809217520912
F        -0.89816859481126      -0.89369730717971      -5.32621433083802
F        -2.27578273229871      -2.06264662478072      -4.14421009436105
F        -0.24178969430853      -1.77798701645502      -3.45870092053325
