46
C12H26F6NP optimized with ForceField in AMS.
N        -1.89774876979818       0.13056053395933      -0.05385690760614
C        -2.10222510830073      -1.08613118352243      -0.89831058667792
C        -3.02726199767882       0.11669013142515       0.92683868663277
C        -0.59508109720589       0.03674801420533       0.68347394890157
C        -3.47440207645128      -1.65368152946245      -0.59180364562372
C        -3.73263413802866      -1.22168185770501       0.82327165799496
C        -1.97917279590957       1.35540191994612      -0.91429657708428
C         0.66066124016716       0.06053224683290      -0.22292738042147
C        -1.73938208895645       2.67838180442689      -0.16358082440173
C         1.93147957724529      -0.17609668987315       0.60292541078317
C         3.17997763342292      -0.19126813970592      -0.28759719508688
C         4.45066630111098      -0.36233214103105       0.55346260840851
C         5.69760257830727      -0.39678768406672      -0.32460342210367
H        -1.36488056587247      -1.88878801269876      -0.66584338495823
H        -2.01431337397049      -0.88415930775751      -1.99030368119367
H        -3.78919867319255       0.89917952716140       0.70375482261017
H        -2.70051321086425       0.28950503945454       1.97774678049313
H        -0.57692857057003      -0.90180137410791       1.28543292137462
H        -0.50619787520587       0.86319633541761       1.42312910053414
H        -3.49766492869046      -2.76129825022826      -0.69088726899634
H        -4.22940368325956      -1.20056168864313      -1.26988580829161
H        -4.82214800564515      -1.13385138901050       1.02981730513643
H        -3.27310547831833      -1.94701006174187       1.53082327132534
H        -1.25284078862690       1.29949058142172      -1.75397394468480
H        -2.98210580062277       1.41292723732000      -1.39679911092810
H         0.58992329829818      -0.71959265666134      -1.00949242868886
H         0.75442961844282       1.04773485037140      -0.72035739997447
H        -1.99083565110844       3.52738644603291      -0.83315883230788
H        -2.37090213913638       2.75613572757174       0.74434955706376
H        -0.67372880730998       2.78656842259955       0.12377269996094
H         1.85187287525161      -1.14981033028737       1.13461989815790
H         2.02784957086479       0.63344066189639       1.36024657396791
H         3.24224484627616       0.76309492007590      -0.85623314790261
H         3.10205916923015      -1.03088850856564      -1.01352493464902
H         4.54079018344703       0.48289403891485       1.27044920593039
H         4.39298173525813      -1.31018187848729       1.13225253809013
H         5.79001797127287       0.54736792764783      -0.90292190939158
H         6.59834185200818      -0.51001981503770       0.31508743370351
H         5.65168926400381      -1.25571213435614      -1.02775828440296
P        -7.21134525246273       0.01408101342388      -2.64417386575280
F        -7.77819042376271       1.62014280387878      -2.86572476145953
F        -7.24569377191041      -0.33038147166402      -4.32644645628886
F        -5.60657645702857       0.58933229458589      -2.85306953753875
F        -6.72046709492885      -1.60905817222591      -2.37243803410402
F        -7.07189021138464       0.24517996461333      -0.94795247117841
F        -8.86511766570620      -0.43101410044339      -2.51344882387102
