35
C11H17F3N2O2 optimized with DFTB in AMS.
N         0.99183080370698      -1.27471541264318       0.39319763471172
N        -0.58314333816318      -0.51640579381578      -0.86521072298259
C         1.90361661482897      -1.44209585943963       1.52095838335576
C         2.95775155178472      -0.32796474255209       1.53582930845349
C         2.40888346667281       0.99373339266863       2.07823426634919
C        -0.06239053365039      -0.46205704581774       0.36004393212815
C         1.17547203156099      -1.81839380225257      -0.84914841200216
C         0.18251359479189      -1.33648835914046      -1.64282432809822
C        -1.68893937535973       0.31313829025920      -1.33504009669688
C         3.45523424399877       2.10028499680663       1.96258976086617
C        -1.16177064565161       1.67005897574251      -1.78957370498927
H         1.31209190725201      -1.44139573592664       2.44140337263929
H         2.38202544127189      -2.41793255498823       1.40611743914356
H         3.32460136417926      -0.17490319516856       0.51908340675715
H         3.79240027723859      -0.66712506807701       2.15639600189238
H         1.53116924084537       1.28420131455384       1.49450403866805
H         2.10109210838293       0.86769509687693       3.12295127496873
H        -0.45113472425339       0.10707860060811       1.18542063313914
H         2.00005461340858      -2.47287549369444      -1.06980701096308
H        -2.17604717083318      -0.21654079649249      -2.15793916463386
H        -2.39961086069070       0.42043782898932      -0.50972080835723
H        -0.01410777431192      -1.47851249435609      -2.69041313644435
H         3.72621071177538       2.23922863870769       0.91597147997352
H         4.35105222998601       1.84656559047763       2.53091779263270
H         3.04780075656725       3.03588124021611       2.34569586339298
H        -0.58512237827775       2.13379978298607      -0.99070925560149
H        -2.00135700549872       2.30935877395440      -2.05839058154917
H        -0.50607390314257       1.54338611771946      -2.65001148937741
C         2.11453395360291       0.87675839813098      -1.98477833398119
O         1.76354808939578       1.29145127185587      -0.87995542470600
O         1.48639547653915       0.62403785387759      -3.00699572741192
C         3.68360813140540       0.48287402048137      -2.05728952874950
F         4.23396537742672       0.58703379808616      -3.26865965423553
F         3.81224546683554      -0.82632669406029      -1.68298306389680
F         4.45208890777523       1.18305585102673      -1.20457867549532
