45
C13H25BF4N2 optimized with ForceField in AMS.
N         1.36318493119438       2.27596048164891       0.04052127915974
N        -0.84262142055854       2.43665675629475      -0.19925186962844
C         2.74121751728098       1.86440938646597      -0.22086291463393
C        -2.18213142448292       2.24180873290066      -0.75390747083810
C         3.01478235918445       0.46172152956090       0.34294259631658
C        -2.42986630803022       0.76301008800880      -1.08894594324789
C         2.07966934127305      -0.59449151995954      -0.26574176985807
C        -2.35832943439948      -0.13132341301089       0.15719849751531
C         0.32835881500750       2.18781510288964      -0.81760375629273
C         0.83146672142079       2.59971942561148       1.23623024515363
C        -0.53608671406696       2.70768296491654       1.08574940055726
C         2.43322507378293      -2.00271005899483       0.22148800736338
C        -2.55410756874323      -1.60595124085760      -0.20969794189566
C         1.45175317252641      -3.03366860370505      -0.33039470797996
C        -2.47508091414681      -2.49657385869046       1.02754048853638
H         3.43797921988958       2.59333878360591       0.24607631102111
H         2.93521784394302       1.86865886788300      -1.31602595006787
H        -2.28589905703443       2.85036138942586      -1.67767295876844
H        -2.95107157183844       2.59125558394885      -0.03048731724768
H         2.89215170741766       0.47615983753787       1.44800790080195
H         4.07063652502403       0.19325741434030       0.12006847837443
H        -3.43526956860160       0.66572308405129      -1.55363291719131
H        -1.68040937424202       0.42441659166627      -1.83390864432810
H         2.15102581233282      -0.55862368170789      -1.37506183632201
H         1.03178217333824      -0.37100513112870       0.02780854796871
H        -3.14377014323775       0.18111858636367       0.87973801733559
H        -1.36639614365585      -0.01598160708684       0.64461648329288
H         0.41751712996264       1.86160051704399      -1.84601518770987
H         1.38812433442378       2.68557702197869       2.16017450817796
H        -1.25767847548692       2.89252034896867       1.87038575332852
H         2.40138772570631      -2.03464876463573       1.33268286885340
H         3.46091746900730      -2.26735527963905      -0.10942850639920
H        -3.54476285428365      -1.74608902376604      -0.69439376214811
H        -1.76553047696659      -1.91921895757189      -0.92734988926641
H         1.47049631121558      -3.03264354515832      -1.44101407659303
H         0.42212616755982      -2.80627170200329       0.01483547474298
H         1.72906797129952      -4.04617021391445       0.03078561167305
H        -3.29593803037507      -2.24933498715300       1.73338263278323
H        -1.50011866964678      -2.36075555109162       1.54271902035555
H        -2.57192301080079      -3.56136720782266       0.72738600655368
B        -0.18476725206864      -1.00737232141163      -4.31652928632536
F        -0.42465424105282      -1.27361737667284      -5.69054813445670
F        -0.30015074770254       0.38778628713296      -4.08015854239602
F         1.12289177108382      -1.43935698337156      -3.97072906320550
F        -1.13742877265257      -1.70471612299109      -3.52812882216493
