48
C12H26F2N2O4S2 optimized with DFTB in AMS.
N        -1.70946322516331      -0.25827179796388      -0.40053147046882
C        -1.97765219699190       1.16127271369400      -0.81690654575474
C        -2.72220084885023      -0.67023471552622       0.62756923463026
C        -0.35541208605832      -0.34984595251471       0.25940389436423
C        -3.40006866768770       1.37173694826195      -1.31542647009923
C        -4.16034052401113      -0.50094932108840       0.14888946640361
C        -4.42532474711022       0.94454005919108      -0.26957322290010
C        -1.75038121621387      -1.19255906053939      -1.55836898056431
C         0.82187554466852       0.09702767050855      -0.60414028283870
C         2.13287307669665      -0.14980202506633       0.15042575674019
C         3.32597907124120       0.29609672036091      -0.70101607576030
C         4.65064915846969       0.05718879888226       0.02936859858128
C         5.83902238074525       0.50195925715627      -0.82142771689797
H        -1.27601171293131       1.41519668042939      -1.61013039018708
H        -1.78105190658938       1.78646824319781       0.05836250987066
H        -2.55201222243761      -0.04813223586467       1.51094183615777
H        -2.52036814546959      -1.71259451034790       0.88620225261989
H        -0.40402885976654       0.26411911685738       1.16324687388111
H        -0.22907059010798      -1.39496079911864       0.55776246887928
H        -3.50869496522053       2.43660089799044      -1.53486919242386
H        -3.55626635910541       0.82805000932499      -2.24956025716584
H        -4.37104528475951      -1.17975415120263      -0.68131076296052
H        -4.81513497277015      -0.77845449107549       0.97921787816329
H        -4.35770212159699       1.59727885174268       0.60697736424365
H        -5.43391276379226       1.02831684735579      -0.68009085335343
H        -0.99945195291787      -0.89888049246700      -2.28500040747274
H        -1.55445903048582      -2.20164463645163      -1.20022991930263
H        -2.72718338586704      -1.14817980876947      -2.03023940416802
H         0.84562699298512      -0.45223375039788      -1.54674866603987
H         0.74018473346830       1.16016619320713      -0.83711788983361
H         2.12408822784152       0.40476338415318       1.09537060341952
H         2.22583188259100      -1.21546702219458       0.38780682748780
H         3.22359475618003       1.35995678214110      -0.93753389063861
H         3.32229530406487      -0.25718104725259      -1.64550738043840
H         4.74966511337980      -1.00790780672764       0.26606997091495
H         4.65104881382229       0.61088918274024       0.97473493850673
H         5.86571830322558      -0.05360500271027      -1.75957884663521
H         5.76741490124343       1.56589538240563      -1.05038977371310
H         6.77089416653820       0.32343079776581      -0.28454856997859
N        -0.20705080090103       1.44116066219157      -5.55559928132907
S        -0.83795614493053       2.91608685748310      -5.75519800691537
S        -0.19585308590910       0.93348253384285      -4.08370522282396
F         0.32472352632521       3.87016160752071      -5.17310120085297
F        -1.80361960131999       0.60696178359775      -3.73537638311767
O        -0.86888401117686       3.18333566200056      -7.15038181123511
O        -1.98043935557025       3.20777260992124      -4.95220370018924
O         0.14442739397981       1.85663483454065      -3.03086375978679
O         0.38946406864602      -0.37434466218572      -4.01380787921838
