22
C6H8F6NP optimized with DFTB in AMS.
N         0.88563927576580      -0.27107706321534       0.25327609682289
C         1.60154192276164       0.85052823475568       0.42178170198085
C         0.76476480385928      -1.17349650889807       1.23927568246125
C         0.37184101727291      -0.59563436627375      -1.07479682171663
C         2.20567123418841       1.11748072045186       1.63440434013756
C         1.33703977787102      -0.94517682111191       2.47196878863551
C         2.07692552694519       0.21288039832951       2.67749376254162
H         1.68199673442799       1.51785637453964      -0.42583634549574
H         0.21432571163227      -2.07832534203414       1.01272658985630
H        -0.56556148082388      -1.14020632780393      -0.98040195418995
H         0.22405893261553       0.32128200212135      -1.64060213095647
H         1.11971481053110      -1.21874892596374      -1.57128315268998
H         2.79403117971556       2.01921684307669       1.74407288360959
H         1.23044966524305      -1.68830141456876       3.25135151841685
H         2.55634973130024       0.39739887956984       3.63078605101521
P         4.09874684403610      -1.43781271947739      -0.90229494377135
F         3.21458600016448      -0.01505941615264      -1.17975264096515
F         4.79459612411712      -1.26791996499499      -2.36138920731844
F         5.26401410535396      -0.54466690194721      -0.18560092307217
F         4.89565961772226      -2.82311796290831      -0.61470949337204
F         3.31603599610252      -1.57152363884342       0.57212027026479
F         2.83339668889746      -2.28219742205094      -1.59087371529450
