29
C7H16BF4N optimized with DFTB in AMS.
N         0.73604479635370       0.41205154396612       0.76760945490070
C         0.02585322787647       1.31739308468543      -0.18861308361927
C         0.40151599054069      -1.01919456242463       0.46435649565444
C        -1.48379877194282       1.10065377629163      -0.19073135472404
C        -1.09733175458673      -1.27984649513016       0.47481055531979
C        -1.82197680832075      -0.35686121752940      -0.50359506464613
C         0.40450463204993       0.75666220852140       2.17875801673229
C         2.20531276960483       0.59509793872267       0.58757721387700
H         0.43306843239636       1.11375660552877      -1.18324633714239
H         0.27032238759639       2.34554575004342       0.08927702634229
H         0.90704800842031      -1.63504811174764       1.21113238467745
H         0.81715064841384      -1.23912886531815      -0.52274332413014
H        -1.91196426521005       1.75676756037886      -0.95323861603656
H        -1.91163740279948       1.38818126326280       0.77327671621469
H        -1.50056716299942      -1.15510584885539       1.48283712926342
H        -1.25006557631837      -2.32207410445908       0.18432608890548
H        -2.90161746802364      -0.50668860100770      -0.42954728075304
H        -1.51455240393458      -0.59105954413048      -1.52815604211299
H        -0.66019902036319       0.63051206096865       2.35202905385483
H         0.96571439557213       0.09322566111626       2.83442160159716
H         0.68921933648993       1.79175638611780       2.35865010895013
H         2.47281697058913       0.33936713259770      -0.43574034325585
H         2.45703643271394       1.63395208891899       0.79189963081211
H         2.72281594335129      -0.06261608980007       1.28503465376603
B         2.56301408630054      -1.82771091434304       3.08234357434390
F         2.88671495721080      -0.46458446590540       3.31327570299482
F         1.15234143356368      -1.93950680354954       3.21606894707125
F         3.22328420828687      -2.66506376274313       3.92566500655816
F         2.86335153726819      -2.09001216797670       1.71895982348450
