54
C14H26F6N2O4S2 optimized with ForceField in AMS.
N        -0.71414917188383       0.31182731709885      -0.15206364125626
C        -1.28485873548011      -0.44741833312430      -1.31250240539271
C        -1.84038299587088       0.72346010848565       0.74925970416366
C         0.27638276201571      -0.51220551647216       0.62707354548829
C        -0.07803521216870       1.54967305652485      -0.72210510316844
C        -2.13495076678662      -1.66344958831687      -0.90868783127942
C        -2.74004506628925      -0.44464931605633       1.20368198158795
C        -3.27291973439380      -1.23521349140886       0.01218225100968
C         1.54692904223495      -0.94422883536706      -0.14402808556470
C         0.64917311785133       2.46353394281175       0.29493514365774
C         2.46942652257358      -1.77502075621727       0.75819168010557
C         1.22320499872673       3.69584039432196      -0.39972592553146
C         3.73725172451483      -2.18984758635340       0.01805439235509
H        -0.49289944953579      -0.78004089715356      -2.01465492423389
H        -1.94430105569276       0.21896824926979      -1.91715249025101
H        -2.49421611462138       1.46971481832652       0.24108136385036
H        -1.45652494985059       1.21103849897348       1.67092794618513
H        -0.19322362260772      -1.43778988090529       1.01155714069194
H         0.59086100281393       0.03284162980864       1.54400994337191
H        -0.85044916715856       2.17136371514426      -1.23239563352114
H         0.64329115051250       1.28048879955944      -1.52570637450631
H        -1.51556708151858      -2.44801629917772      -0.42748024705209
H        -2.57074781330357      -2.11797870764042      -1.82453599204827
H        -3.60290779738896      -0.03417791308681       1.77157478448142
H        -2.19606962709462      -1.11859030802395       1.89763087086099
H        -3.99229729368257      -0.60564351495223      -0.55651033901544
H        -3.81446915247315      -2.13499858938475       0.37568950888307
H         2.11216520220825      -0.05798846519599      -0.49684014893195
H         1.27729352289857      -1.56893700271397      -1.01899293900183
H        -0.04725991104553       2.81506879657899       1.08231466259118
H         1.49248912694294       1.93075338352874       0.77699105768690
H         1.93829779821822      -2.69097313105949       1.09738559879884
H         2.75343939704691      -1.18484185553328       1.65639703331271
H         1.75442670300646       4.32883329418653       0.34222231136095
H         1.94473821627701       3.39388573418470      -1.18872639423678
H         0.40759376755344       4.29529776439064      -0.85768798897073
H         4.27934860480400      -1.29399441198505      -0.35168818714919
H         3.48385378877532      -2.84255564522752      -0.84382883834464
H         4.40227399529527      -2.75130802406151       0.70762764232192
N         6.52791714077887      -0.78830737788222       1.15701698993131
S         6.17682305172945       0.32780062117905       2.30420566473735
S         7.85444198474386      -0.69794777701260       0.19881470604888
C         5.17271916014023       1.61670465151950       1.59316455738249
C         9.11837946969743      -1.76693655276643       0.85497311713992
O         5.40372073748393      -0.33186644538735       3.41124839559698
O         7.43907409143957       0.92592379825471       2.86035854370523
O         8.37083359595311       0.71251889925187       0.13220675975935
O         7.49657552961603      -1.16747537148775      -1.18320672193881
F         4.85770652210142       2.54707813320348       2.56506975426173
F         4.00833252206561       1.07217869164198       1.09154020480584
F         5.86171157118229       2.23832665054918       0.56971530124367
F        10.24982987310887      -1.68671940650669       0.06541802706961
F         8.65937617388785      -3.07053814480164       0.86599892843947
F         9.43122210334853      -1.38133574213212       2.14465872760789
