40
C12H26ClN optimized with ADF in AMS.
N         1.03413038321561      -0.14464816616418       0.14234424860947
C         2.11168032155279       0.26763550457159      -0.85101091202500
C         1.79616022086520      -0.95882663901579       1.16065704310354
C         0.40205201650361       1.06009087938160       0.79788198768015
C         0.00875275703040      -1.00800490970734      -0.57984330066696
C         3.01299399657699      -0.95765999647675      -0.96560563661801
C         2.83030765982811      -1.75040652705487       0.35696684386741
C        -0.34180718796301       1.97585772356555      -0.15149808428219
C        -1.19931171172077      -1.38875003256225       0.25196397417503
C        -0.89800639340078       3.18700282297114       0.59458337223453
C        -2.07842742634198      -2.36299960845347      -0.53816677544903
C        -1.65541922197762       4.12146062188616      -0.34625123414691
C        -3.33696901591256      -2.75515030929576       0.22855266523454
H         2.63529844971580       1.11853075876196      -0.38800884962744
H         1.60533412405791       0.57097315445185      -1.80214072201208
H         1.09118735465712      -1.57300273032099       1.73552114719254
H         2.27782454319717      -0.23834077071459       1.83844491875282
H        -0.25798840421413       0.67687916801182       1.59270225005953
H         1.23481714908050       1.59781957580805       1.28241203878365
H        -0.26069999296085      -0.44301572672530      -1.50693388321358
H         0.55404844631156      -1.90860728186134      -0.89931950922500
H         2.72015048611173      -1.56396386242098      -1.83541740635352
H         4.05547642234555      -0.64661821576523      -1.12101957022703
H         3.76546280759193      -1.82986681060206       0.92999494430514
H         2.48136182934254      -2.77462971513471       0.16074625559416
H         0.31385833107919       2.29766221378841      -0.97800444044509
H        -1.15810503669297       1.43836056679861      -0.66035001228410
H        -0.91624214518774      -1.86191870389181       1.21183855892508
H        -1.79981111989835      -0.49492215312652       0.49415786665595
H        -0.07019733078908       3.73837075156222       1.07936296899744
H        -1.56924635326800       2.85047743557014       1.40752841160115
H        -2.34674667908554      -1.89642144617828      -1.50193260295688
H        -1.49111440166070      -3.26721962622787      -0.78072302869340
H        -2.50169245188894       3.59732566300560      -0.81698093950683
H        -0.99910169577777       4.47143691367398      -1.15795745863546
H        -2.04553582834333       4.99905098505461       0.18997606955553
H        -3.95462503737714      -1.86992163184760       0.45006389747449
H        -3.08338644747938      -3.23804102051585       1.18663852630830
H        -3.95278094821395      -3.45850143990460      -0.35153437157061
Cl       -0.00544689850912       0.82850384310485      -3.30464105587132
