37
C9H13F6N3O4S2 optimized with ADF in AMS.
N         2.65099124473909      -0.10132611931774       0.91038505925674
N         0.98447995168698       1.24498308222672       0.58358903703894
C         2.07662391885710       0.71495439775090       0.01706652520578
C         3.86480031118785      -0.89863553932760       0.65450770483511
C         0.05706373107227       2.17569920276366      -0.08365434415829
C         1.90213271398506      -0.10336236819401       2.06894474217696
C         0.85112292744446       0.74414075416416       1.86270360862382
C         3.53930937209747      -2.17328077274665      -0.10357630377612
C        -0.98456040979832       1.42986915691266      -0.90086316656237
H         2.46210897924778       0.92390313798743      -0.97739767795738
H         4.54939408298904      -0.26165029506178       0.07842272379139
H         4.31322001150932      -1.09904138740676       1.63843894485372
H        -0.39916076820394       2.78073148734188       0.71330777831857
H         0.67436687685847       2.83237003843611      -0.71249672178197
H         2.18830219182150      -0.68578961179930       2.93572974909993
H         0.03853118885070       1.04498255182733       2.51217841842984
H         2.81241114752917      -2.79149841035240       0.44411333242412
H         4.46225356832253      -2.75462256917827      -0.24417041457623
H         3.14391728221566      -1.92774593084273      -1.09923536684853
H        -0.50640255084198       0.86497208680129      -1.71257294436888
H        -1.67427835801145       2.15566951257799      -1.35530913586833
H        -1.56710477134935       0.73631353391562      -0.27597685630065
N         4.27030471335975       2.36972632424402      -3.64762184663053
S         3.81400468882145       3.34325015130754      -2.45597535549349
S         3.96766350375086       0.79806143741993      -3.61680023957509
C         5.11746117404675       3.10354143820849      -1.06224885048339
C         2.15627798231317       0.58641329595412      -4.22345897464951
O         4.02049978674702       4.71595809307222      -2.87521520812342
O         2.54431633313488       2.96501425961981      -1.81222932842426
O         3.92899578587891       0.20672480558280      -2.26541820569427
O         4.74909785114679       0.14809086513712      -4.65144218252141
F         5.41754356973479       4.30473993002981      -0.52427113123192
F         6.24958503945293       2.53674907166406      -1.52506451438633
F         4.62981306745762       2.31445535426014      -0.05771645732968
F         1.32106361571443       0.34849323874899      -3.16594372179907
F         2.08105806086665      -0.48080411100696      -5.04653769355591
F         1.70436141156458       1.67480941507940      -4.87563479885790
