34
C8H11F6N3O4S2 optimized with ForceField in AMS.
N        -0.52746397814114       0.19535544248761      -0.35750581817964
N         1.65597909036920      -0.06883244641637      -0.04353756763227
C        -1.92649983463792      -0.09716777702997      -0.65581148891673
C         0.50278957500166      -0.67145723802869      -0.39047012598970
C        -0.00824909919088       1.38199786833202       0.01902260983736
C         1.34869172687326       1.21762456709038       0.21234235448962
C        -2.73066216716290      -0.20087396364881       0.63424673567694
C         2.97178643266310      -0.68476369537698       0.05123080652013
H        -2.34691574891962       0.70397707527882      -1.30129989635497
H        -2.00380247314026      -1.05958734412352      -1.20737903774605
H         0.41320917575790      -1.71909128183028      -0.65118228896797
H        -0.57230040810249       2.29728733421440       0.14325217209722
H         2.05548081838209       1.97698944915507       0.52136689703968
H        -2.32027492142257      -1.01344320579850       1.27118742712046
H        -3.79016067541894      -0.43196491234302       0.39670087929711
H        -2.68740631316616       0.75779289530669       1.19302438924438
H         2.90207914146721      -1.76958650827721      -0.17185551067705
H         3.66136618858656      -0.20916458060460      -0.67717311042307
H         3.37383351211206      -0.55550862735168       1.07809042740331
N         4.44102358011155      -6.12893754096926      -0.20586241371849
S         3.84351302223205      -6.69232167257053      -1.62501570592738
S         5.85930659244301      -5.31267829461135      -0.09817722810148
C         4.39315686047892      -8.36949555523883      -1.86610612018324
C         5.51989830521569      -3.56719450174708      -0.03093188241430
O         2.34242488876977      -6.67870290814698      -1.56869062462569
O         4.31033669575722      -5.84119141292197      -2.77340394706491
O         6.73875072392487      -5.60706432823637      -1.28176651879538
O         6.56559607481859      -5.71517567320635       1.16492477317454
F         3.87257832821323      -8.86248940509383      -3.04754515057446
F         3.95958168698115      -9.15271613106110      -0.81328225242327
F         5.77311038876564      -8.40477482758942      -1.92413229888579
F         6.70714525188868      -2.86482202687693       0.04928899593340
F         4.74922801436787      -3.29139234167868       1.08264501224929
F         4.83885059972161      -3.18548205238667      -1.17066167108159
