47
C13H28BF4N optimized with ADF in AMS.
N        -0.44653567682628       0.64596914170664       0.00016364873453
C        -1.50704064896517       0.57048153591865      -1.07868786121404
C        -0.87028343076644       1.71665705121413       1.00524914182022
C         0.85427527336114       1.09505755543019      -0.66969532012687
C        -0.26590503202173      -0.67367632844398       0.71303762323838
C        -2.90207104674505       0.30754923557727      -0.53260622828005
C        -2.25154107849027       1.48413457576514       1.58602387455175
C        -3.30449346584244       1.37489733170541       0.48512313869367
C         2.09071958854126       1.03331146699383       0.20985000717174
C         0.15388381579330      -1.84168273942802      -0.16342568304724
C         3.22052519377110       1.86849821016358      -0.40541184065954
C         0.41784406907889      -3.08421800767817       0.69225421464856
C         4.43608486595694       1.92296374208159       0.51556480677169
C         0.82947957823558      -4.28647345964752      -0.15262602915269
H        -1.19120581706891      -0.19523886344546      -1.80044141406323
H        -1.47436305757832       1.55109532838818      -1.58005830856112
H        -0.83852195809546       2.66893833274582       0.45844241623947
H        -0.09219694958824       1.77983327384158       1.77579819010752
H         0.67365378283555       2.14071132614650      -0.96103802218246
H         0.96298985182405       0.47641182840902      -1.57434207570821
H        -1.21439426442338      -0.89922255770939       1.21596517628357
H         0.48370752203163      -0.48330188150018       1.49443602887007
H        -2.96107959274094      -0.70027235789491      -0.08491507898344
H        -3.59310678137289       0.30560664957577      -1.39251605217370
H        -2.44668113742876       2.35712463064776       2.23013631587725
H        -2.27809076691142       0.59630257105340       2.24121938614123
H        -3.38505506182495       2.34989441222096      -0.02918204609736
H        -4.29563751764411       1.14790408782717       0.90892825458679
H         2.43017244240384      -0.00818662224314       0.35189258056408
H         1.87374473139226       1.47886849199209       1.19303509786184
H         1.06998836412355      -1.59676497874755      -0.72571587432774
H        -0.63095026920138      -2.08002170876794      -0.90157014194831
H         2.83800301369606       2.89152425156130      -0.55397542817330
H         3.50372779350275       1.46470524331968      -1.39504957464421
H        -0.48809334312310      -3.33183830146877       1.27440723505286
H         1.21016154775583      -2.85774057090833       1.42750736365915
H         4.84479168558299       0.91841819532910       0.71340338186986
H         4.15471503653740       2.38216950459294       1.47585379850792
H         5.23602976908973       2.53346218872622       0.07073331778542
H         1.75252952819765      -4.07468735129482      -0.71532918455619
H         0.04353890106841      -4.54771347871143      -0.87889491557779
H         1.01340339320653      -5.16856902613300       0.47824442980235
B         0.81786684287344       4.44684482437505       1.55148296862643
F         0.85774783150331       4.14244948563930       0.13545097478697
F        -0.55121247001822       4.49519230321651       1.94989325564729
F         1.47879054770865       5.64767908925377       1.80597321328183
F         1.45609230580564       3.36033260870405       2.25082345989507
