40
C12H22F3NO2 optimized with ADF in AMS.
N         0.35321122439650       0.04225117395599      -0.05902226785831
C        -0.59784173508070       0.63390751717341      -1.07382284030010
C        -0.35599549606492      -1.06909802776028       0.68481462395260
C         1.54838162189071      -0.53335770301422      -0.82908293402551
C        -1.89369828084737       1.12706248670428      -0.45380937406225
C        -1.69499023530589      -0.65902284837497       1.28368783288638
C         0.84851058840056       1.09387657728160       0.93944822664270
C        -2.61753914475704      -0.02098066450933       0.24795018076850
C         2.40984825127206      -1.52934285270946      -0.07015995965048
C         1.19865731923194       2.43622233070657       0.33342921371381
C         3.61662060910780      -1.89013994257438      -0.94275376304010
H        -0.81164662160818      -0.17301706335938      -1.79309856515275
H        -0.04617230795432       1.42335912715102      -1.60117364521349
H         0.33781712809072      -1.41921418636082       1.46024083211659
H        -0.49593046617433      -1.87949456388647      -0.04907191582822
H         2.18835702185106       0.32795445429189      -1.09044582474586
H         1.12372269495062      -0.99247920766407      -1.73689082042733
H        -2.51317218352112       1.54891312196651      -1.26228547559211
H        -1.69607400378428       1.94826144126568       0.25476674866741
H        -1.54353535378871       0.02939523390146       2.13117303270072
H        -2.14910082321358      -1.57000415240425       1.70880620085674
H         0.06575567714152       1.19327452767302       1.70146195927184
H         1.77073099417726       0.67926839105596       1.38995534569793
H        -3.54488518655135       0.33286096595860       0.72506810800771
H        -2.90938487790540      -0.77880681948317      -0.50277196363403
H         2.78726443532868      -1.05735245532441       0.85302984424957
H         1.84965182077922      -2.44486482806619       0.18251381879470
H         1.69264882334085       3.01242590367143       1.13136579892138
H         1.95708352395144       2.33292214734461      -0.45673377088158
H         0.32843813096122       3.01088874342440      -0.01564240453632
H         4.26585444217715      -2.60300524867597      -0.41430019028769
H         3.30694325301285      -2.35176855473321      -1.89492512656667
H         4.20073947834934      -0.98369056712900      -1.16011931994685
C         4.36826776485749       1.24287527291124       0.64699331542516
O         3.78458342410795       0.78975662895904       1.66580689049414
O         3.98747528814301       1.33852028489204      -0.54685930576736
C         5.81004627245569       1.77163649877552       0.94258904065228
F         6.61258941726608       0.77488480509602       1.43898594857700
F         5.78710131972962       2.77196638899719       1.88272773442967
F         6.44178991708584       2.27778336807207      -0.15465882080981
