29
C7H16BF4N optimized with DFTB in AMS.
N         1.23170727361074      -0.18582138006925      -0.39274216769148
C         0.65169610789702       1.08330124424530      -0.94567547843240
C         0.17121683825674      -1.23781102752152      -0.31388511711102
C        -0.54309235914634       1.57400059562848      -0.14260961673275
C        -1.03687096911048      -0.79297153046730       0.50398686711664
C        -1.62699852832002       0.50056301357260      -0.05731067883917
C         1.86062168306215       0.04060010283314       0.93831021199417
C         2.29526745728265      -0.65668692329869      -1.32610423524147
H         0.35479936148348       0.87092163404508      -1.97628598105866
H         1.44870509800295       1.82955652028767      -0.94826991091246
H         0.62582395249844      -2.13166250435753       0.12043467164245
H        -0.13500870474929      -1.46085445985941      -1.34003062352958
H        -0.93652514485805       2.45868094880158      -0.64915252631496
H        -0.23147023509460       1.87880099725247       0.85946965984902
H        -0.75837024427233      -0.65665088163666       1.55229702082044
H        -1.77983596984185      -1.59372326067795       0.45927362523811
H        -2.44052733308804       0.84160389143695       0.58718799687334
H        -2.03845454994697       0.31174442091756      -1.05437973555937
H         1.11942328974846       0.40302638217987       1.64455170971645
H         2.27801833465046      -0.90142417491246       1.28911472218882
H         2.65173466573707       0.78042381590444       0.82265020093362
H         1.85528241709598      -0.83446641408568      -2.30537553646812
H         3.06175319753470       0.11410736034191      -1.39475760128073
H         2.72239009047026      -1.57784742829184      -0.93437482836700
B         3.86748587829708       2.40031601206969      -0.66356920747947
F         4.39000568149936       1.16737201134632      -0.19358638491397
F         4.82273604661133       3.36219121568405      -0.75950676650078
F         2.82524249855927       2.76840614943676       0.23165875824899
F         3.25053063782983       2.12898671209440      -1.91455194548864
