38
C10H19F6N2P optimized with ADF in AMS.
N         1.44336434911097      -1.48957219731641      -0.44724926551742
N         3.07419473350852      -0.10057595331912      -0.78640449651554
C        -0.91819893253772      -2.04492197606861       0.06395299271079
C        -1.47063518093160      -0.66850491543874      -0.29925152232976
C         0.34063552035380      -2.42486843430977      -0.70540313746026
C        -2.73715748850230      -0.31293147145866       0.47846641425463
C        -3.29093165792152       1.06495417418063       0.11871138866064
C         2.09672638807241      -0.79418979131502      -1.38264004850284
C         2.03475027901842      -1.25871237852272       0.77653231506100
C        -4.55188266863208       1.42755725619747       0.89896591472550
C         3.06287106324175      -0.38834627202799       0.56260427857152
C         4.11934889860879       0.63899074890859      -1.48676134182212
H        -0.72568578390866      -2.09607943065967       1.15116531604544
H        -1.67255556817665      -2.82269258132985      -0.14834019242358
H        -1.68538631389610      -0.63608869214263      -1.38432769654269
H        -0.70179747251831       0.10319727218248      -0.10874366499547
H         0.17448966798675      -2.41432313536093      -1.79055114234631
H         0.70741403276930      -3.42987852203567      -0.44674424836774
H        -3.51172843245401      -1.08000935231128       0.28992773049285
H        -2.52320760437061      -0.34930344577241       1.56398202519946
H        -2.51036382958714       1.82578322652685       0.30237262695955
H        -3.50518003500009       1.09519677498600      -0.96538186898919
H         1.94331334519739      -0.87052235738501      -2.45237578942566
H         1.69052778000823      -1.73717215855196       1.68405694841896
H         3.79341945271058       0.03176922158216       1.24275298374292
H        -4.35898863928573       1.43185903165291       1.98403729904739
H        -4.92106495604404       2.42552077500660       0.61852675032580
H        -5.35921768876699       0.70311942514097       0.70583011944344
H         4.95584467802772      -0.04384415128561      -1.68577140552697
H         3.71998632058501       1.00239601468521      -2.43957770650269
H         4.42683534637873       1.48795234606510      -0.86444745508314
P         3.94867955379773      -3.28789900576829      -2.93974287857903
F         3.90973568872677      -1.66397680510780      -3.40285369088905
F         5.58638652521109      -3.24845784996358      -2.96352965228786
F         3.96961333334494      -2.78414287323932      -1.33851585753605
F         3.93093489612111      -4.84775412269006      -2.44402895305134
F         2.26606488395222      -3.24902817826484      -2.88420217224491
F         3.88575043890133      -3.73215440136901      -4.51179775782028
