40
C12H26ClN optimized with DFTB in AMS.
N         1.05067575310680      -0.16646656930547       0.09171225022086
C         2.16604047560130       0.25924014151764      -0.82972524405949
C         1.69029323722885      -1.07068945420187       1.13183706635242
C         0.44071713618815       1.01908884754686       0.76941874731624
C         0.03639147342166      -0.93944691195276      -0.70832115291930
C         3.23238888066041      -0.81350656351983      -0.68733931890460
C         3.17520124419449      -1.15169001084428       0.79725783358392
C        -0.21474163873448       2.01366315385157      -0.18741434972982
C        -1.17133669346234      -1.40250120712713       0.10375688583793
C        -0.67170267794521       3.25354604883081       0.59099032253893
C        -1.84022366141473      -2.57960831496669      -0.61914756329122
C        -1.35202126087427       4.26208319108754      -0.33201501955806
C        -3.06804374210958      -3.06779962922223       0.14444417248796
H         2.54316136237505       1.22492667792330      -0.48282315758254
H         1.78112881792528       0.36506946888743      -1.84347737789847
H         1.24258920626002      -2.06177104524401       1.03647346666602
H         1.50022100931724      -0.66732161246938       2.12639293013760
H        -0.29787307182345       0.64407290324702       1.48151675695408
H         1.24141317457586       1.51123777758497       1.32877403903677
H        -0.28223705580631      -0.30945992658250      -1.54135901371670
H         0.57224872704488      -1.81192599263385      -1.09795305795672
H         2.97489834668090      -1.69707938802935      -1.27619537315331
H         4.20901595930196      -0.43830651029086      -0.99443638815064
H         3.74849777215188      -0.43218417107623       1.38835992340394
H         3.54602170755169      -2.15893023312097       0.98951758689194
H         0.49108921700658       2.31403561701742      -0.96644710578232
H        -1.08098956463244       1.55729879778030      -0.67287030639085
H        -0.86231619644526      -1.72995986027847       1.09970647218218
H        -1.88836146626003      -0.58342206501734       0.22636398437586
H         0.19417089383472       3.72172940843879       1.07076485920556
H        -1.36875155988521       2.95006354474891       1.37892263678157
H        -2.13263478406087      -2.26792832787385      -1.62723824035242
H        -1.11505569948567      -3.39357806258042      -0.71061781879494
H        -2.22960299632609       3.81778593977714      -0.80281100450686
H        -0.66540172295327       4.58878474096530      -1.11380221749462
H        -1.66788855732916       5.13373788356794       0.24058139787882
H        -3.80885285055216      -2.27142161735106       0.23710517128192
H        -2.78792602454283      -3.40045281364483       1.14472254785061
H        -3.52218937479511      -3.90528178087410      -0.38468420794830
Cl        1.61395901971072      -3.71491558586545      -0.58409818119397
