31
C7H16F6NP optimized with ForceField in AMS.
N         0.83578410669230      -0.00525374909890      -0.03625686365036
C         0.07904952606327       1.22526621618969      -0.41153920026375
C         0.07563545305691      -1.23426513112783      -0.40869890995035
C        -1.35366133556687       1.25655753646701       0.14857084356504
C        -1.35700526996923      -1.26038677392996       0.15151551082339
C        -2.12493802436218      -0.00136805429289      -0.24715203780724
C         1.16794875330770      -0.00364378606545       1.41260699822220
C         2.11469792536346      -0.00833085037079      -0.78885822808640
H         0.00488080777472       1.30989625441143      -1.52066067467875
H         0.61448580165993       2.13666358226843      -0.05980192524042
H         0.60864118761066      -2.14625889741605      -0.05496279633914
H         0.00114404222114      -1.32077761211904      -1.51767030797384
H        -1.88015117422979       2.14544883077169      -0.26123758636659
H        -1.34236055765980       1.36694495812285       1.25316697696815
H        -1.34598678024582      -1.36834746263858       1.25635775831602
H        -1.88565347120071      -2.14883920977891      -0.25641904971438
H        -3.11527827982469       0.00046667611038       0.25712339189657
H        -2.29900028081026      -0.00244402384046      -1.34558188587123
H         0.26428573996958      -0.00236966689359       2.05298804042228
H         1.76387613768543      -0.90275573142537       1.68691528244996
H         1.76469295297342       0.89569857076045       1.68469912291823
H         1.93874989228161      -0.00670230348874      -1.88848786267003
H         2.72368290158514       0.89002790080207      -0.54611167498020
H         2.72253653474737      -0.90940577296476      -0.54735780618014
P         6.18219531884033       1.82470721156129      -0.86998496350704
F         7.74426636019233       1.11713229660793      -0.97134920668521
F         6.69416276228551       3.01316602180642      -1.99944113410166
F         5.61083277216701       0.83839162301547      -2.15529378394581
F         4.67129250098704       2.63564148686117      -0.77799438565654
F         5.65184434537325       0.61459900690861       0.22819024629963
F         6.72925584113122       2.77338496108641       0.45327479968762
