31
C9H19NO2 optimized with ForceField in AMS.
N         0.83531253712723       0.01139217087228      -0.03157032180248
C         0.06169218078047       1.23181124943938      -0.40505298673035
C         0.09029309546812      -1.22647134334254      -0.40487483873401
C        -1.37125031526839       1.24210437938445       0.15654322897266
C        -1.34071737941404      -1.27038777079830       0.15959646493954
C        -2.12239268040811      -0.02401481150905      -0.24870591504361
C         1.16869325840719       0.01487543681814       1.41647568136470
C         2.11471214151921       0.02599683845580      -0.78311001885767
H        -0.01576260925027       1.31369524743660      -1.51433144249584
H         0.58525034325102       2.14999925195468      -0.05401655456274
H         0.63583176886055      -2.13260756083843      -0.05594345808925
H         0.01313039082949      -1.30880507628193      -1.51410891583843
H        -1.91160051537265       2.12591249420796      -0.24622663137311
H        -1.36152186917780       1.34417967312101       1.26175487767329
H        -1.32683195343548      -1.36915898123867       1.26503750625841
H        -1.86005715665908      -2.16823567328699      -0.23966197419987
H        -3.12108813528220      -0.03533190592271       0.23792430398993
H        -2.27659352736830      -0.02811856981490      -1.34958994775387
H         0.26578422057421       0.00810011732457       2.05765861524711
H         1.77271897846209      -0.87961771520425       1.68879053632922
H         1.75824641920787       0.91911595976478       1.68802273632268
H         1.93897921259185       0.02554093384442      -1.88246135853301
H         2.71403165298536       0.93229260586772      -0.53884273669758
H         2.73319141567853      -0.86798846683724      -0.54111799187872
C        -2.92449612552817       2.93527072813372      -4.62843269383417
C        -3.43487079249686       1.94888880578743      -3.62585791498080
O        -3.91674482023014       2.34130432935986      -2.57570737670156
O        -3.37374693045216       0.75133329099329      -3.85463184805517
H        -3.75413660404733       3.59606830952078      -4.95719066212445
H        -2.12477997942054       3.55384053691188      -4.16956639774321
H        -2.50869495413165       2.41296625467625      -5.51673516916766
