55
C17H36ClN optimized with ForceField in AMS.
N        -0.53269350226488       1.78033861220015      -0.19439384608885
C        -1.39588400915269       2.31642451258405      -1.29648721215394
C        -0.22512339296779       2.89563906525659       0.75966265525474
C        -1.20317555126584       0.65691899599033       0.54829778634193
C         0.75060428523493       1.33212319537739      -0.83719166252429
C        -2.68497250929017       2.99933103827849      -0.81169487891748
C        -1.47300931409351       3.62432797833844       1.29938412298685
C        -2.36282441414598       4.12554859358132       0.16537880434974
C        -1.49871929158208      -0.61813610584262      -0.27932835037266
C         1.77338618486113       0.64241814877267       0.10023080921043
C        -2.14275015156838      -1.69405183916144       0.60564171555206
C         3.04930887369382       0.27906183112246      -0.67178524526820
C        -2.45102649003893      -2.96464475601251      -0.19450741434558
C         4.05940787367344      -0.44353107409882       0.22767893247436
C        -3.15831567856945      -4.00472979819161       0.68274168202915
C         5.33589149330415      -0.78790325332696      -0.54934203872775
C        -3.43221781868885      -5.28898824796647      -0.09410919153794
C         6.34553162276161      -1.51124852411386       0.33696409178207
H        -0.83164979346533       3.07605088341802      -1.88721347804870
H        -1.66474920662532       1.52376291439159      -2.02549739092420
H         0.33520531386549       2.52037512786405       1.64319404351673
H         0.42196072693594       3.66011360901535       0.27079947405809
H        -0.59262740962200       0.36741255174933       1.43170387077148
H        -2.16713339404899       0.98941828366756       0.97965672153715
H         0.53823729107990       0.64310541174204      -1.68500166451471
H         1.26296832700284       2.20577499581570      -1.30354162853648
H        -3.21504440801935       3.43028838628547      -1.68848035848671
H        -3.37717749983191       2.26748764160304      -0.34933207841173
H        -2.05420226916208       2.96726433837464       1.97927878321912
H        -1.14492443921103       4.49698322008227       1.90464561502525
H        -3.30777672272726       4.53050945807848       0.58742762961761
H        -1.84649623033105       4.94963067481231      -0.37447385339806
H        -2.20085771814368      -0.38750293192545      -1.10588049573391
H        -0.56675427022317      -1.03903465802324      -0.70753175026360
H         1.34966586287285      -0.29245724135145       0.52066024732922
H         2.05323855517216       1.31551887328944       0.93576318208067
H        -3.08594131824081      -1.29642369288463       1.03914914710573
H        -1.45191028454361      -1.94712697913296       1.44006994896548
H         3.51274913838978       1.20795547424908      -1.07170543074604
H         2.78647873862494      -0.38080397399747      -1.52807904378450
H        -3.10418355105757      -2.70973629678118      -1.05809344278922
H        -1.50048620751960      -3.39246875155175      -0.58306392292520
H         4.31836257152226       0.20912944143775       1.09046088972805
H         3.60179793464518      -1.38005593239170       0.61651190376501
H        -2.52508034031533      -4.24611656901603       1.56418132974030
H        -4.12478433388388      -3.59184252827636       1.04618527447762
H         5.08417978058961      -1.44087423329525      -1.41342051300277
H         5.80160306890363       0.14447243262713      -0.93676422807337
H        -3.94209215686070      -6.02109926944116       0.56716657559874
H        -2.47915211114222      -5.73548226334273      -0.44926438442554
H        -4.08825359949007      -5.08099582526663      -0.96604061908910
H         6.63411381811433      -0.86987153087248       1.19673509921888
H         5.91503888859752      -2.46253083818599       0.71592785620925
H         7.25689134662877      -1.74457242315157      -0.25314760073773
Cl       -5.41859810608078       0.60420072879717       1.16073822198255
