25
C7H16ClN optimized with ADF in AMS.
N         0.83158744218658       0.05068777003465       0.08466805562789
C         0.04087124036331       1.19575398157287      -0.49397936244007
C         0.10298493172389      -1.26611266496416      -0.16297961938442
C        -1.39050943956057       1.24804039839940       0.01821247776734
C        -1.31856728950284      -1.23842580895909       0.36314330649931
C        -2.11806962588970      -0.07547727238292      -0.22592862191837
C         1.07744297798942       0.23911640132340       1.55727694660833
C         2.16945631341281      -0.03141787398963      -0.59308921658094
H         0.05244781305708       1.04851662201716      -1.58655348805192
H         0.59771505054412       2.11659379687518      -0.25968992785866
H         0.75009636596710      -2.03973031786919       0.31263291984969
H         0.10981818395144      -1.39990203488810      -1.25766966988656
H        -1.89783459235956       2.08019180322293      -0.49874493551652
H        -1.40105315378810       1.49692796180314       1.09299854753549
H        -1.31731164511993      -1.19381362841983       1.46575408711240
H        -1.78118795102964      -2.20451935440888       0.10136757293357
H        -3.13217401453075      -0.03549007722447       0.20471889285957
H        -2.23490073794604      -0.22999686335348      -1.31496995400516
H         0.12122383384175       0.33405092683665       2.07995313310124
H         1.64410251131167      -0.66000923683885       1.89097209622508
H         1.66943287122981       1.15566441332433       1.68127233945610
H         2.00001221423725      -0.18849316542240      -1.66626792019788
H         2.69681361550295       0.91669151308928      -0.42196498684067
H         2.70205116706552      -0.89193065578513      -0.12994524429415
Cl        2.66826479174239      -2.63213602219287       1.38552955939931
