41
C11H22F3NO3S optimized with ADF in AMS.
N         0.70480846008647      -0.03807448037377      -0.68435169107573
C        -0.65905725992057       0.43542089469549      -1.13579672763388
C         0.58860210301441      -0.61747343731187       0.72491638607193
C         1.13863909948988      -1.13705067729546      -1.63921271312504
C        -1.28291329050324       1.44273159545459      -0.18420158795975
C        -0.04794342572275       0.34955012486739       1.70806441849060
C         1.71975313439709       1.09250585479327      -0.67359442132288
C        -1.40385538201534       0.85924736544134       1.22460479786653
C         2.55309905434723      -1.65769550641652      -1.45314436244934
C         1.94789339556273       1.75867174264132      -2.01287927405409
C         2.78908851747349      -2.84273609019823      -2.38925886672447
H        -1.28229266541904      -0.47237143954939      -1.19371615778466
H        -0.54411052685676       0.83445554942528      -2.15317377291290
H         1.60854043541143      -0.88831344270236       1.04703344849492
H        -0.02618568285761      -1.52626227294146       0.61065242480216
H         0.99793639819760      -0.73622873383348      -2.65524821059428
H         0.40621374365589      -1.94852679324178      -1.49896839950670
H        -2.27317082814468       1.70823018374189      -0.59097966882554
H        -0.69358576994884       2.37427167620723      -0.16976612948237
H         0.65445774565978       1.17054651532583       1.92411936675749
H        -0.14829647783653      -0.19879087393354       2.65947198890376
H         1.38193603921391       1.81430725223491       0.07635245068077
H         2.63937039964228       0.65931353219362      -0.26906725728894
H        -1.80383653761514       1.61542381012168       1.91844809010044
H        -2.13075733098350       0.02534034766782       1.20461006719453
H         3.28731377475982      -0.86751815263258      -1.67231327195956
H         2.73234736646405      -1.95213667429689      -0.40894609966837
H         2.73699194387860       2.51126791767931      -1.86515065347413
H         2.31087142116534       1.06258396971550      -2.78250888451603
H         1.06088911629988       2.28572563045449      -2.39336070757832
H         3.80813729872223      -3.23256676777512      -2.25351411084810
H         2.08573085895008      -3.66465815524929      -2.18227494858604
H         2.67596284835724      -2.55392795790348      -3.44645176713933
S         4.02629944802269       0.14822083307364       2.20687200390491
O         3.55894265047114      -1.10577590314900       1.55955129884205
O         4.68721433490478      -0.00485404590663       3.49998194753851
O         3.06908178942158       1.26885761305150       2.07592815832518
C         5.42022028677562       0.67913153483521       1.05932307818727
F         4.97965447529741       0.78372644456423      -0.24788115603688
F         6.44390162622021      -0.21088839265128       1.05830518674278
F         5.91629710616115       1.89468837877659       1.40440839404352
