55
C15H20F18NP optimized with ForceField in AMS.
N         0.26360757462093      -0.11861925205455      -0.17378047005958
C        -0.59613936859685       0.69449590700285      -1.09418453699332
C        -0.50254268839683      -1.33387668019033       0.25665808038184
C        -1.96232808639912       1.07815591551959      -0.50096336410232
C        -1.88378939139378      -1.02289059036439       0.86764200270225
C         0.68421519733672       0.66637721864127       1.03920455928308
C         1.45202125470227      -0.56404371279441      -0.97929468545296
C        -2.72791459082632      -0.17010141912715      -0.07431302668712
C         1.55834135216588       1.90397637906039       0.76457463324678
C         2.52029876666987      -1.36265544025760      -0.20978893637867
H        -0.80056672615279       0.12265670188023      -2.02974983485313
H        -0.07739169320974       1.61804327396788      -1.42548806318612
H         0.06396166056655      -1.91259759675958       1.01762277083107
H        -0.66780036911616      -2.01687585015220      -0.60856614603973
H        -2.55386379778113       1.61241477623638      -1.27562480389095
H        -1.84879811423328       1.77679594266069       0.35348163142653
H        -1.77886009964220      -0.51773853469759       1.85034524205302
H        -2.41660721649213      -1.98002230920946       1.05630957770592
H        -0.19294665675199       1.02367855823751       1.61225975844925
H         1.23115319792006       0.01381288982543       1.75401061968917
H         1.12228290892480      -1.20299877560573      -1.83097699685847
H         1.95430087362111       0.30603646412902      -1.45704118383799
H        -3.66954248898872       0.12695670104140       0.43582979467574
H        -2.99737286765829      -0.76686584426959      -0.97369872609244
H         1.83099445006601       2.36874034092564       1.73547833072092
H         2.50556480438173       1.64269116931829       0.25417170052518
H         1.01007039182546       2.67034501342005       0.18218464177323
H         3.31927645159279      -1.65986859921592      -0.91856347228731
H         2.99845776731003      -0.75399354069987       0.58192671813688
H         2.10736835759547      -2.29422911004137       0.22373009790940
P         8.07711938646316       0.09065926205992      -0.35152882199951
F         8.91922102311651      -0.85832569488257      -1.51473851800341
F         7.72996309118247       1.67816178984070      -0.92669723699769
F         8.00567143659123      -1.49086999953554       0.32276459763315
C         6.67094577420705      -0.22169087902377      -1.65157129261898
C         9.93539392702081       0.62736067385505      -0.25963762367925
C         7.43634675042779       0.44512599269125       1.43751577993652
C         6.29841276596740      -1.69529120560084      -1.96951328325322
C        10.28224313719528       1.80949391899820       0.66888295804063
C         5.97109970049410       0.07448182158219       1.74092423765875
F         7.04189102392845       0.35211608514502      -2.86171845625036
F         5.51473713074576       0.41557346748967      -1.24521130946483
F        10.37290067948089       1.00442238920406      -1.52636944052160
F        10.69702169017874      -0.45497128599246       0.16001619546284
F         7.53903865965134       1.80275186814652       1.68419520127873
F         8.24199919703577      -0.20299440146969       2.36441315984416
F         5.19947124452727      -1.70082352565955      -2.81046142238862
F         5.96511340181230      -2.40830025574565      -0.83787946678162
F         7.32443501296951      -2.35029981398896      -2.62618643827011
F        11.61138535292507       2.14606926174773       0.47845151866629
F         9.51992809822191       2.92490422299871       0.37621051710002
F        10.13070408545710       1.47185627435434       1.99902800751132
F         5.10709747504870       0.96646620111990       1.13505722688414
F         5.76171858891518       0.15683754738626       3.10649020883797
F         5.66789320117586      -1.20971191894737       1.34670730698454
