39
C9H20F2N2O4S2 optimized with ForceField in AMS.
C         2.70157446235178       0.34151838470832       1.54757945202814
C         1.65839221261010       1.28501431806976       0.96765937253623
H         1.33652679671853      -0.86557389267163      -0.88682172293203
H         0.37997226877011      -1.68670893668007       0.39105371057031
H         3.16478215878111      -1.42136308473019       0.35405908837169
H         2.17632145891231      -1.74110883333327       1.83571788432724
H         2.63934434442345       0.33882811321660       2.65801452115388
H         3.72722237518369       0.64554000182898       1.24376326764180
H         1.39536816331335       2.08595542815535       1.69729800247375
H         2.11959080928214       1.78905474075902       0.08543113503033
H        -1.22973717970447      -0.41177907232204       1.53712750978730
C        -0.42395401821364       0.32655637664637       1.73630122256668
H         0.12623427816058      -0.03824277526271       2.63209097896090
H        -0.89632179206050       1.29981884021980       1.99696199561910
C        -0.20369464373604       1.15215936365134      -0.58119910631713
H        -0.33188618458108       2.23296477828695      -0.33972748376803
H         0.43885721409664       1.12845958162886      -1.49116786976313
H        -2.32574809838481       0.74700470496137      -0.12192230250086
H        -2.95980958073485      -2.14851642942111      -2.57607823214112
C        -1.64370469750554      -0.80402766375080      -1.49830513658981
H        -0.79100877242667      -0.97917582433069      -2.18749601460616
H        -1.57988925275229      -1.51739686439693      -0.65302969988062
C        -2.94454128274642      -1.08911496330490      -2.24441261567333
H        -3.02741864186553      -0.43710522397708      -3.13998020137357
N         0.48238039710752       0.47424658136114       0.56677810231371
C         1.06764421801409      -0.83639200718604       0.19381287766343
C         2.34880070959290      -1.02798049179167       0.99957921881774
H        -3.81609701218999      -0.91275752887521      -1.57851023827806
C        -1.61320592163776       0.63554941278233      -0.96616799274723
H        -1.98475606698376       1.31168477876059      -1.76835602104761
N        -0.42798635909727      -0.30949844005984      -7.31710192822911
S         0.40607687239509      -1.06365041026778      -6.12915939700593
S        -0.18291234571268       1.27338088650600      -7.65053049576873
F        -0.02499832614564      -0.40806569598785      -4.65075474647362
F         1.28355571462520       1.44891106987472      -8.43915603312696
O         0.08613386829302      -2.53099526501759      -6.14423105979127
O         1.88122205897881      -0.86661195698736      -6.33629383450253
O        -0.14989961933118       2.06993186234181      -6.37666680128306
O        -1.28912372070029       1.77690854639547      -8.53280346926233
