36
C10H19BF4N2 optimized with DFTB in AMS.
N         1.51178973829543      -0.87956664553660      -0.70489966812810
N         2.55761437371661       0.97190401512353      -1.03407982728624
C        -0.63345783345874      -1.91577253450050      -0.07875954520479
C        -1.44673329577699      -0.65248308131458      -0.37702671275344
C         0.61741826849170      -2.00765329374301      -0.95591293235453
C        -2.69528574386179      -0.57231418590405       0.50366228397826
C        -3.50378759937167       0.68843505073540       0.18036663042812
C         1.85823006225667       0.01102079642075      -1.62814547641878
C         1.99555210555486      -0.47379445756840       0.51265062943317
C        -4.74901215009355       0.79428951111031       1.05864612968695
C         2.64905587828336       0.69947552008966       0.30424166592063
C         2.90820899263570       2.22222321693901      -1.68735124141146
H        -0.34457078947650      -1.94163741844020       0.97717904058991
H        -1.23862514487200      -2.80498852185456      -0.28108470669507
H        -1.73790031007332      -0.65469301846876      -1.43078551111303
H        -0.82392543488074       0.23087045755458      -0.21055784760914
H         0.34333452039202      -1.96115578778189      -2.01355348570019
H         1.16338528684722      -2.93509161343372      -0.75664984789956
H        -3.31808128406080      -1.45967971577660       0.34216742391350
H        -2.40130182793440      -0.55941034588398       1.56003536165039
H        -2.87409032956147       1.57105718117925       0.33231554384430
H        -3.80080011988483       0.66819122860871      -0.87266786081988
H         1.61618269634379      -0.03187558757875      -2.67664351410754
H         1.84118132194887      -1.04170405702777       1.41304232735936
H         3.16532289686897       1.34990176152138       0.98848310292302
H        -4.47217520673736       0.84231377442954       2.11330825142397
H        -5.30914114087625       1.69498788801426       0.80599535329794
H        -5.39774422655345      -0.07059558698031       0.91018018685129
H         3.07341294345549       2.02873331100010      -2.74554524072264
H         2.05973143866943       2.90095082233491      -1.58263995478522
H         3.79855162290587       2.64281688004161      -1.22343388146767
B        -0.19439909523109       1.36651783759133      -3.14016777909238
F        -1.22810233407181       2.05582924834204      -3.69613467356680
F        -0.01071149364465       1.71243365438926      -1.77135285781835
F         1.03805890649445       1.62665122732491      -3.78759413541789
F        -0.40882500273907      -0.03803002235687      -3.18395476822815
