28
C8H12F6NP optimized with ForceField in AMS.
N        -0.52603928728997       0.00097373781911      -0.41608688131736
C         0.90534729749414       0.00257373313659      -0.74170020611294
C         1.73501289616385       0.00990931357341       0.54521633256882
C         3.22784474978860       0.00660570326750       0.24187581754293
C        -1.18495161165369       1.18801462692214      -0.24563105153861
C        -1.18228331709612      -1.18725838269063      -0.24473361080981
C        -2.53799050304198       1.20447153168548       0.10314475492633
C        -2.53525278270845      -1.20661655537727       0.10416689580453
C        -3.21437619655473      -0.00175160277131       0.27951024157707
H         1.16274211407070      -0.89326991611628      -1.35067752794662
H         1.15903438904800       0.89403709979344      -1.35853358912770
H         1.48793980811498      -0.88850147001541       1.15160445839651
H         1.48929594730811       0.91587675818834       1.14075508865552
H         3.50194280697058      -0.90360397408030      -0.33285577411037
H         3.79623435331750       0.01092010293423       1.19540447113464
H         3.50547652681142       0.90945099924810      -0.34255572216844
H        -0.66184809963625       2.12897789433991      -0.36961118333878
H        -0.65712188503612      -2.12726658788890      -0.36777301259666
H        -3.05549411717074       2.14509305545921       0.24004275955278
H        -3.05054947457501      -2.14828778593651       0.24195466810894
H        -4.26151177365758      -0.00286286012099       0.55385587141452
P         7.65936028099667      -0.55923334820288      -0.89473500055504
F         9.16802480251999      -0.75932320031631      -1.69049699325628
F         7.13756257435360       0.63812857907490      -2.01066915006713
F         6.85750697548122      -1.67341018829097      -1.92766186697431
F         6.26751639012036      -0.34581772204822       0.08536370903945
F         8.09558702919523      -1.85896276087344       0.14019760009913
F         8.40772226966570       0.65002898788707       0.06874083649888
