29
C9H12F3NO3S optimized with DFTB in AMS.
N         0.75122465379771      -0.01595567065909      -0.66204871794992
C         2.06615123178940       0.44492026636621      -0.19488883196398
C         2.32806488310088       0.04761606946077       1.25847643410481
C         3.77426146536441       0.36823254594839       1.62595574430972
C        -0.13531482335255       0.86972600449787      -1.14562570776318
C         0.50803739908529      -1.33523751679444      -0.70794832209388
C        -1.33151331916264       0.44676604710613      -1.67858439757523
C        -0.68737737893368      -1.80764813924274      -1.22464602325901
C        -1.61659405258360      -0.91580903949514      -1.72671946704232
H         2.80807268470591      -0.01786513673131      -0.85096151340283
H         2.10932263207155       1.52987147768731      -0.31432257859677
H         2.16419160390155      -1.02551632925076       1.37939834812131
H         1.63428239151286       0.58049246101578       1.91666338031095
H         4.45147942500421      -0.21489124898889       1.00250280133874
H         3.95367803204432       0.11450124150474       2.67006529667290
H         3.98663239523717       1.42828592094086       1.48148839019145
H         0.13820179521825       1.91698859568274      -1.09927563548786
H         1.25459833046781      -1.99549553012516      -0.28637694978302
H        -2.03069371971866       1.17822064127582      -2.06285629341345
H        -0.85719609315739      -2.87600484577224      -1.25596645916398
H        -2.54968672224583      -1.26504846500231      -2.15172618393501
S         3.20514049224345      -2.43161340178881      -2.01397045571161
O         3.37894556077035      -2.26737328595408      -0.57363258751989
O         2.05033818414422      -1.68227692080084      -2.51989194106610
O         3.32966268556807      -3.77471879674960      -2.50870216034374
C         4.63548330247796      -1.48589989741209      -2.71479226333762
F         5.79377503227393      -1.92619997565918      -2.24583671649030
F         4.50899376212918      -0.19854443091383      -2.35549358537646
F         4.66516377414588      -1.53768797954608      -4.03787635487369
