51
C13H24F6N2O4S2 optimized with ForceField in AMS.
N        -0.87101984916507      -0.20729830928362       0.02788967724327
C        -1.19328152276565      -1.24565418728222      -0.99990091500231
C        -2.02963510034030      -0.22749194167671       0.97209589723899
C         0.37856470558521      -0.58107316014381       0.76779810304281
C        -2.62124901894609      -1.70918817685870      -0.77732519006141
C        -2.84537708528002      -1.47315605598808       0.68921058281317
C        -0.76676724804950       1.13359279029820      -0.63359586924704
C         1.66556982753002      -0.55435078990059      -0.09146810924027
C        -0.42015937917217       2.29582376001621       0.32678323108341
C         2.85018100125069      -1.14706364800686       0.68124599455194
C        -0.51675654302553       3.64057243438138      -0.38863478746845
C         4.13983689184979      -1.05068206126788      -0.12809665033701
H        -1.07500422500638      -0.88127377364435      -2.04607707129837
H        -0.54351984107947      -2.14632469081185      -0.90873449195116
H        -1.72603752034282      -0.20571886560932       2.04364547961613
H        -2.70915917141000       0.64328006439204       0.82104437515485
H         0.26165120136881      -1.60204887308254       1.20048228226078
H         0.53204159734839       0.09196024830704       1.64051568602725
H        -3.31979905132163      -1.07946424153538      -1.37212339791654
H        -2.76134303940468      -2.77889777803405      -1.04615800953559
H        -2.44413263662656      -2.32882520168178       1.27635632321303
H        -3.92309742258073      -1.33023539129247       0.92221680932370
H        -0.00535277123679       1.11065559455983      -1.44456297654061
H        -1.73005559544950       1.37158937167249      -1.14256353538317
H         1.52448615926917      -1.13096655034009      -1.02940166674775
H         1.91614247445013       0.49223052784818      -0.36299112071382
H        -1.10818602909082       2.31086803788747       1.19730333610815
H         0.61634783140980       2.18811238943706       0.70709428437788
H         2.98707456725384      -0.59774542200765       1.63821534026043
H         2.64931681365171      -2.21553183366577       0.91361713003877
H         0.17241622494792       3.66435706916655      -1.25960896349817
H        -1.55601057845646       3.81782692098955      -0.73828291892959
H        -0.23384441915518       4.45595029206659       0.31000132091730
H         4.97817749818750      -1.49292401519899       0.45017609203134
H         4.03812383328609      -1.60296494560865      -1.08658874798956
H         4.37849167002469       0.01305708804694      -0.34021180798909
N         8.12981220596973      -0.12381665838361      -4.05501879802827
S         9.14837480742554      -1.16865834265593      -4.80064291418055
S         7.93180013989441      -0.09115422010969      -2.42820191759779
C         8.30708386811869      -2.71150229571288      -5.09960993593220
C         8.88082081437702       1.25083196936484      -1.74495211330242
O         9.57728046096661      -0.58589810092106      -6.11718904920024
O        10.35871426638526      -1.41837557232818      -3.94417772814743
O         8.38262899395702      -1.38487333026188      -1.80867155784816
O         6.48129426991853       0.13734366793624      -2.11483915820483
F         9.14014500806064      -3.56294659204940      -5.79947937893258
F         7.16411244922478      -2.47915585019088      -5.84067842604610
F         7.96030437699784      -3.29939174999661      -3.89855594513603
F         8.74469842338360       1.25892822194447      -0.36998503557160
F         8.42261067543541       2.44949359335938      -2.25736943322164
F        10.21374378147651       1.09208662865704      -2.07218921700346
