35
C9H18F3NO3S optimized with DFTB in AMS.
N         0.29173724488348      -0.14837114412644      -0.34652000872395
C         1.12281584755569      -0.33978766279280      -1.58812906354830
C         1.28918416961707       0.08434110111640       0.76571188274147
C         2.34496314993396       0.53579139320820      -1.38218258043335
C         2.63964980600712       0.37689247054905       0.10729817555640
C        -0.51691570128126      -1.38044866840186      -0.04874434586147
C        -0.57137416440045       1.06514137946775      -0.53636271776205
C        -1.43910778611988      -1.79856767161239      -1.18098502162757
C        -1.56462017705070       1.32353468059680       0.58818461789858
H         0.53523706107998      -0.07795062701509      -2.46762483602426
H         1.40601965828474      -1.39229903742847      -1.63534701647262
H         1.34161838600081      -0.82057942194002       1.37031241229596
H         0.94229894387806       0.91083883838550       1.38594276646049
H         2.14022738539974       1.57910774271670      -1.63798965221406
H         3.17280889119081       0.18036480932526      -1.99620332085904
H         3.30590582036930      -0.47338996964223       0.26622361050244
H         3.09768645590735       1.27196117697823       0.53084544789048
H         0.19923238962895      -2.18092347345621       0.14249370638685
H        -1.07825106515871      -1.18655432463337       0.86745035404324
H         0.10584724557023       1.91634332338791      -0.63981210951355
H        -1.11172543733770       0.93922373550374      -1.47737019141973
H        -1.99386580398039      -2.67369543153160      -0.84407346448283
H        -2.15111126077959      -1.01893177240897      -1.44952552037516
H        -0.86332618997323      -2.08558903706463      -2.05881872521377
H        -2.00504385495322       2.30675365528940       0.42366788109649
H        -2.36710996432216       0.58814019801533       0.58836092925016
H        -1.08496281233688       1.32351460406715       1.56536591835282
S         2.26259354525224      -3.68901738156773      -0.53895763277901
O         1.20802488624903      -3.46038895045828      -1.52222035720986
O         2.36519983374038      -5.02916788801423      -0.03412732897531
O         2.32888102552531      -2.62893179296596       0.46801557367880
C         3.80770505331486      -3.38926489419188      -1.51828121910582
F         3.75992829654362      -2.13747536799391      -2.01276824072151
F         3.92729640563215      -4.22185234818205      -2.54108163964773
F         4.89664860852932      -3.47933363297930      -0.76724893188323
