44
C12H26BF4N optimized with ForceField in AMS.
N        -1.62776451423799      -0.29637975817899      -0.18657737318686
C        -1.91402678320304       1.11604033511532       0.21051167752121
C        -2.63847998036220      -1.22027742973504       0.42145356520647
C        -0.29013077493536      -0.71288071197883       0.35305486337449
C        -3.35740581765130       1.55792550489023      -0.08310445279166
C        -4.10329805729616      -0.81984505404757       0.16122205640411
C        -4.35831163398526       0.62237036691496       0.58478832943445
C        -1.63426166445243      -0.44372146546098      -1.66833455857435
C         0.93067635126763       0.07413388652829      -0.18655245372539
C         2.22849122057166      -0.45162146235400       0.44213214288687
C         3.45581430980346       0.27798436580106      -0.11925594773490
C         4.74767935335376      -0.27180205604141       0.49715059444967
C         5.97698333369117       0.43365808378015      -0.06920286074121
H        -1.24364671492032       1.82350264250049      -0.32250391102298
H        -1.73374110605972       1.25143562988745       1.30080890448299
H        -2.50840908089501      -1.26143438116710       1.52830580930425
H        -2.49165149429788      -2.25994241478881       0.04909599622233
H        -0.28226990277867      -0.61793603463873       1.46401114477394
H        -0.11686591482620      -1.79282704656355       0.13576292998596
H        -3.50640669555823       2.58664053893428       0.31170544153202
H        -3.53977237743427       1.59626395924277      -1.17804683958714
H        -4.37618813065623      -0.96199591611074      -0.90492059069147
H        -4.76727282518856      -1.48862725264389       0.75141363604806
H        -4.27003212935378       0.70891767646691       1.69092776657113
H        -5.39048196687292       0.91638389444281       0.29602349698722
H        -1.00597565707020       0.32963602132551      -2.15907870240941
H        -1.26375714478530      -1.44812789407258      -1.97244188567342
H        -2.64546384552564      -0.32306630700870      -2.10192896275589
H         1.01012735479473      -0.04328089669140      -1.28718915571165
H         0.83946434272755       1.15204230135406       0.06017336701110
H         2.18782804761674      -0.30769864784663       1.54490847442918
H         2.32345944364665      -1.54013891082763       0.23157792825833
H         3.37226548521585       1.36495632254420       0.10361532227099
H         3.48980567240332       0.14483851075830      -1.22346848157660
H         4.83078861123584      -1.36044863413547       0.28484734216777
H         4.72673882483879      -0.12878514423156       1.59979874806077
H         6.03852863508651       0.28018148194897      -1.16782341926684
H         5.93279563990743       1.52203551169128       0.14868267281943
H         6.89282282294632       0.01465923084888       0.39874934957639
B         0.37325415536335       3.93766040932323       2.15143259199368
F         0.05806643403614       4.04125666226504       0.77053007640717
F         1.70626733801129       3.47032648998477       2.29894611021695
F        -0.51875766302569       3.02679885514163       2.77594238689654
F         0.24757379605419       5.21371334183302       2.76238662685632
