48
C12H22F6N2O4S2 optimized with ADF in AMS.
N         0.08527449390475       0.60977888075437      -0.13635558460280
C        -0.68762299601216       1.72928231731527      -0.82544102948376
C        -0.44980307673269      -0.72247865539842      -0.62299099294368
C         1.53935222074408       0.75273051367774      -0.56399237509679
C        -2.19097942177415       1.61710291458983      -0.65866417306758
C        -1.95386472637907      -0.86931419627759      -0.44834814173389
C        -0.04655900755705       0.70229944428701       1.37216486746465
C        -2.70288983818125       0.26297635561570      -1.15002163914184
C         2.51053012306424      -0.25956171469716       0.01582128222929
C         0.62229878161410       1.91596580897529       1.98859537137424
C         3.92000262525818       0.07217806440524      -0.48347703968848
H        -0.41901052206358       1.66020556911098      -1.88594086090758
H        -0.27429404694555       2.67991399290118      -0.46720445225840
H         0.10194822951290      -1.50699107583129      -0.08755913929373
H        -0.18433822919142      -0.76912509835183      -1.69143447782036
H         1.83061084822189       1.77754234813459      -0.29985027212415
H         1.53205837053948       0.69712006168056      -1.66195945124176
H        -2.62672871638996       2.43752532670173      -1.25250201008306
H        -2.49731298827441       1.79538161334727       0.38674985697797
H        -2.21937878873353      -0.90963059588212       0.62195418729427
H        -2.23382027265945      -1.84858940202247      -0.87094570428481
H        -1.12162362425220       0.70414316206099       1.58723318159916
H         0.37296118964351      -0.23139882248133       1.77519743938660
H        -3.78692157879428       0.16931092144839      -0.98187955070511
H        -2.53537622305471       0.18863277699270      -2.23944985828475
H         2.50024564028869      -0.23074503410404       1.11855365497814
H         2.24824059635078      -1.28624579253204      -0.28962606759490
H         0.36487304631315       1.93712939782928       3.05831644565069
H         1.71656991016334       1.87940811015253       1.90772296832418
H         0.28322645186532       2.86020080963513       1.54193113605942
H         4.65046308526045      -0.64214873532800      -0.07690655825085
H         3.96857345064774       0.03559698553792      -1.58185659726603
H         4.21565085963837       1.08824023854190      -0.18299854437434
N         0.79835404068591       3.66584409305946      -2.85947319227581
S         2.15378302311940       3.90509676749691      -2.02039749357975
S         0.77889363408847       3.46011392078704      -4.46390940293297
C         2.75279572453029       5.67493948183012      -2.41644801965791
C         0.72114748831966       1.57705335165902      -4.66618934836117
O         1.73180967092070       3.99320538842545      -0.61341085327034
O         3.28888995241198       3.04372617035162      -2.34503819837441
O         1.99054664791594       3.85706595022817      -5.16557993208979
O        -0.53916734810844       3.84774838468862      -4.94287093002819
F         3.36257256345427       6.17693771000034      -1.31393532332381
F         1.71424592492087       6.47731250002783      -2.73794883745042
F         3.63806354147000       5.66926541474794      -3.42878086707810
F         0.69935388518446       1.26016355579455      -5.97751435498133
F        -0.41063304872932       1.04915315383643      -4.09218517194732
F         1.78368210728029       0.95286765677718      -4.09093392133863
