31
C9H19NO2 optimized with ADF in AMS.
N         0.41560660213683       0.24294024233042      -0.25509360940032
C        -0.35050591042720       1.53305814324541       0.01126965922434
C        -0.56661675577166      -0.79833484566876      -0.77830331708363
C        -1.50445874843428       1.33372262147611       0.98138614350394
C        -1.72575399557524      -1.03554620328163       0.17675791747364
C        -2.47249478783061       0.27089554271601       0.45654988577489
C         1.11283063980631      -0.23611234198709       0.97103770786739
C         1.42363646445303       0.51385493412151      -1.33477314844112
H        -0.75912697143065       1.81217201779497      -0.98023735352153
H         0.39118211173240       2.26467043790656       0.36864593601053
H         0.02305712728524      -1.70733312953857      -0.97521819361778
H        -0.95457422924089      -0.35280899058437      -1.71503801207683
H        -2.01604967047749       2.30762480167224       1.06195151062246
H        -1.14944337133768       1.08388942224011       1.99796108427827
H        -1.39364057269128      -1.51360382019978       1.11642232377007
H        -2.39542804541098      -1.75793061421697      -0.31925842223055
H        -3.28783123099007       0.10172014086137       1.17756726081674
H        -2.90607593574726       0.63336906032327      -0.48999093740142
H         0.38663032680741      -0.44125598640238       1.76329150100036
H         1.66333840571260      -1.15290226945307       0.72182805012568
H         1.81367931838554       0.54310619873768       1.29933545349052
H         0.87029964572201       0.84703309998272      -2.25410649347547
H         2.11106002987754       1.29104682145777      -0.97074842835660
H         1.97662480258760      -0.41770388351133      -1.52412221585554
C        -2.17479887284708       1.96093934851651      -4.75768585853683
C        -1.36776247267806       1.47399883717585      -3.55178084640786
O        -2.01340153049742       1.24593166229743      -2.47590744952169
O        -0.12214470565573       1.32269058076898      -3.72227682386708
H        -2.23760405136000       1.14762295304495      -5.49780646405871
H        -3.19186522225424       2.25622147739911      -4.46599534635004
H        -1.65578712584866       2.80097447987498      -5.24159471785583
