40
C12H22F3NO2 optimized with ForceField in AMS.
N        -1.44537311327378       0.39739717413172      -0.08331772442091
C        -1.75198466122563      -0.88684975857495      -0.77886463597145
C        -2.53095175527419       0.57984746519960       0.91976996721463
C        -0.12925168690404       0.34048920171633       0.62446181049619
C        -3.02130214839415      -1.47174299597696      -0.17540330051320
C        -3.68674759692015      -0.31379599350864       0.51917565161910
C        -1.48155853389789       1.53080868304611      -1.04449617902338
C         1.10493343577954       0.29440909482993      -0.30773723874135
C         2.36956254696797      -0.06743562862723       0.48233836938299
C         3.61099736918337      -0.05526884783769      -0.41715861914850
C         4.87065290346156      -0.38292144474334       0.37992401917239
H        -0.93772145833645      -1.63869911498060      -0.68047190621041
H        -1.91725918588740      -0.74401559478544      -1.87218182172740
H        -2.87293809444046       1.63715948030569       1.00717618873361
H        -2.20955167278512       0.26755138614508       1.94133027225606
H        -0.10708672353863      -0.55481672623541       1.28907512006366
H        -0.01853621917472       1.22914276634918       1.28818785252056
H        -2.75606896780421      -2.25169503025315       0.57292660390727
H        -3.68322976148874      -1.91545277777006      -0.95055002132505
H        -4.35326499405919       0.22258126354078      -0.19119192035643
H        -4.27399344763241      -0.64959780299578       1.40185419548923
H        -0.79632295894552       1.35714621476195      -1.90258688570025
H        -2.50330997340541       1.66172235167408      -1.46672961697885
H        -1.18782210096530       2.48268863633328      -0.54821736202642
H         0.96120051158309      -0.44886973263179      -1.11964494169431
H         1.25203635066106       1.29391353317425      -0.77110269877857
H         2.24866370883485      -1.08175550121732       0.92329749662604
H         2.50720614313984       0.66355058047714       1.30967844106595
H         3.73068588500450       0.94882866744769      -0.87924968179846
H         3.49282958039374      -0.80547321149217      -1.22919071007067
H         5.03242654833544       0.37658660685117       1.17440218785189
H         5.75076645326744      -0.38178639760594      -0.29720514516842
H         4.78248194057714      -1.38706219655388       0.84665303674148
C         6.89599267483598      -2.84049172808585      -3.02290755249411
O         5.89717709991340      -2.30585759302520      -3.47807131014487
O         7.90807901639782      -2.90404513884145      -3.70227031697294
C         6.88808766891474      -3.41592266311071      -1.63722005724209
F         7.21769171048710      -4.75768786379067      -1.69098707011325
F         5.63647711541581      -3.28388799240386      -1.06174338271504
F         7.81536074329903      -2.75140415973588      -0.85618444660472
