46
C14H29NO2 optimized with ForceField in AMS.
N        -1.88791142650281       0.13910871154228      -0.05336858352650
C        -2.10254192796424      -1.06736723439688      -0.90995245494858
C        -3.01516279526494       0.12210420866394       0.93014477009535
C        -0.58490783059202       0.02917213864765       0.68036381412109
C        -3.48330398767925      -1.62040716475837      -0.61472095148101
C        -3.73451173448011      -1.20802271058997       0.80828171584782
C        -1.96299622040482       1.37312824849374      -0.90119425376390
C         0.66918353195103       0.04916574297500      -0.22764174968475
C        -1.71143496826259       2.68711359641408      -0.13879295266177
C         1.93874187970805      -0.19748182517912       0.59723704580511
C         3.18540418048884      -0.22078643985342      -0.29525847979424
C         4.45727913405395      -0.39121982428307       0.54353907096117
C         5.70123229948573      -0.42756451881918      -0.33945135324797
H        -1.37591713352092      -1.88071639701907      -0.68082163813630
H        -2.00445885963482      -0.85776259032213      -1.99981313461372
H        -3.76872627662078       0.91664824497041       0.72271582977374
H        -2.68447966621103       0.27580097140936       1.98296043525229
H        -0.57323753989178      -0.91417170040512       1.27521489309098
H        -0.48854184870637       0.84914414019841       1.42656166067528
H        -3.52267992858497      -2.72544841167591      -0.73257838842491
H        -4.23294054578282      -1.14437088565291      -1.28510180504166
H        -4.82209367739527      -1.11413386032349       1.02013271001133
H        -3.28015248369237      -1.94873137063105       1.50314883981417
H        -1.23954581915395       1.32040077416973      -1.74403361348586
H        -2.96672836369057       1.44244595558526      -1.38087068978904
H         0.59313306637015      -0.72759064352393      -1.01737776287368
H         0.76805079165780       1.03799983217406      -0.72156981013552
H        -1.96161576519647       3.54451269002363      -0.79840497331135
H        -2.33710351747574       2.75924492571259       0.77388817013996
H        -0.64356892057003       2.78626008600752       0.14404465509383
H         1.85288471587962      -1.17160249577298       1.12771756600438
H         2.04165687813761       0.61030573717614       1.35557556323343
H         3.24868740116758       0.72930910099404      -0.87089622572669
H         3.10373408933986      -1.06643092302744      -1.01242207406758
H         4.54969276442033       0.45476430055134       1.25928546672687
H         4.39981355861769      -1.33845404242911       1.12303849348103
H         5.79557549110621       0.51912722256362      -0.91318274705848
H         6.60364146075953      -0.54850584680172       0.29644951711911
H         5.64795225766288      -1.28249786026412      -1.04689076620195
C         2.38058720286243      -2.03021300763326      -4.27227386537516
C         3.03033469972437      -1.43039244236313      -5.47882668960255
O         2.72187960215843      -0.30692155091697      -5.84131762767374
O         3.87001596700720      -2.05916376742059      -6.10259865869838
H         2.59784146760764      -1.40188449390414      -3.38414463972123
H         1.28174331809141      -2.07861806274986      -4.42453938395139
H         2.76417484102030      -3.05704941315586      -4.08935118864906
