63
C17H32F6N2O4S2 optimized with ADF in AMS.
N        -1.34717779469137       0.71985924778969      -1.17100539536590
C        -2.05265342739383       1.96878035084413      -0.65465467701431
C        -2.09952418799655       0.22137942058935      -2.39607045050816
C         0.04562107294380       1.10381673048009      -1.64718133161419
C        -1.28993718816072      -0.32295742728296      -0.07484531461642
C        -3.52854565240304       1.73910625102782      -0.37295900087824
C        -3.56849616254853      -0.04820978146461      -2.13298150757581
C        -4.25327506852959       1.21540150916070      -1.61169748518443
C         0.97536612994970       1.66804881445963      -0.59244874661546
C        -0.50537937734533      -1.58210595314369      -0.40369753797365
C         2.31954827666276       2.01016648389751      -1.24077541273706
C        -0.59651670737423      -2.59072315796188       0.74610465887212
C         3.27373709082843       2.69642671573855      -0.26576163691498
C         0.19495860661801      -3.86750275665761       0.46296307792979
C         4.60207226053944       3.06386266691410      -0.92098788178945
C         0.11372960591857      -4.88469605403280       1.59873889605158
H        -1.91861622193576       2.72622568783727      -1.44298591547729
H        -1.50935602302614       2.28919613184493       0.24309318170721
H        -1.56033030601212      -0.66051996406186      -2.76707524679999
H        -2.01065549266533       1.02446739455421      -3.13938251908281
H        -0.12503971404093       1.84688328580351      -2.43705289470236
H         0.46742318730945       0.20274214980892      -2.11718802062772
H        -2.32792769029723      -0.58068122737436       0.16964092900572
H        -0.85922970463877       0.18213970878630       0.80309141836429
H        -3.94205552486429       2.71345665338195      -0.06505198840674
H        -3.67131689173084       1.05878618070970       0.48502165148059
H        -3.71010729921588      -0.89739482951724      -1.44148719213850
H        -4.00706531321361      -0.34850999940967      -3.09877030466511
H        -4.21550863989929       1.98060693951165      -2.40696815641799
H        -5.31275805496935       1.01827954407482      -1.38628334787953
H         0.55396928886585       2.59748821049463      -0.17752504120428
H         1.13767366468687       0.95607678939034       0.23619799367653
H        -0.89442318638959      -2.05482457733641      -1.32145673683229
H         0.55552360104479      -1.34218461816028      -0.58362332679822
H         2.14217142429763       2.67816717710755      -2.10188342534804
H         2.78843078752562       1.08948641169120      -1.63690741830158
H        -0.22170498461971      -2.12651787079777       1.67746979848910
H        -1.65632637132243      -2.84982329844069       0.92884184350760
H         3.45066641708650       2.03868410650049       0.60587994046658
H         2.78525940771243       3.60963136442287       0.11877632573478
H         1.25178652608379      -3.60223175494125       0.27752654767472
H        -0.17947241626739      -4.32380997071488      -0.47141737785577
H         5.27532822532619       3.56878061389331      -0.21221935801700
H         5.11857164106384       2.16631025055598      -1.29812394002599
H         4.43622675430372       3.74020452049447      -1.77430986582128
H         0.69175037453018      -5.79115512646112       1.36417785448781
H         0.51299110407712      -4.46567079180293       2.53645593430850
H        -0.92876294596152      -5.18987897292509       1.78396160522058
N        -1.43144941216297       3.56958369337348      -3.57504042314598
S        -0.20417359808480       4.57059007873503      -3.23886394900281
S        -1.97703934954672       3.21480434634452      -5.05395630058424
C        -0.72818522557296       6.33723916252259      -3.70021185157031
C        -0.67657178693667       2.09129406941352      -5.87381340790621
O        -0.12856347911092       4.59451084718054      -1.77659664221268
O         1.00961709943224       4.33414981628378      -4.01430093031346
O        -2.10854761058597       4.33818435477151      -5.96735104886777
O        -3.08911179644507       2.28763928693287      -4.83565161045453
F         0.04120472552678       7.19497483285743      -2.98498712505452
F        -2.02581552967127       6.55440655367493      -3.38632976630849
F        -0.54060561067275       6.58249734746748      -5.00850373943814
F        -1.27476310101585       1.39409093174698      -6.86998042454629
F        -0.18369880877189       1.18840922715914      -4.97054177022723
F         0.35361953705751       2.77955802745764      -6.39138551355430
