47
C15H29ClN2 optimized with ForceField in AMS.
N         3.04552135942342       0.93761523573305      -0.08944693109424
N         2.90754244074789      -1.28235815308263      -0.03340818807977
C         1.45774873055063       2.82802685321358      -0.16796991246044
C         2.83693655782220       2.33308619409318       0.29353226184094
C         1.05843856964100      -2.68149435288590       0.83054085035485
C         2.53773352861048      -2.62437147618357       0.41671624278900
C         0.31578152826372       2.11327483429456       0.57088936406502
C         0.12085139470597      -2.28404796872500      -0.32021428315682
C        -1.05505118482359       2.58948877955822       0.07928444306958
C        -1.34612385750916      -2.30966980842596       0.12241327775736
C         2.84126689486573      -0.14475547744061       0.68663576231134
C         3.26172855378745       0.46899085494941      -1.33488347541037
C         3.18248877867814      -0.90778573594948      -1.29903184442300
C        -2.18169125477792       1.88313132524170       0.84321934609757
C        -2.26364559492962      -1.80261407603479      -0.99708240688647
C        -3.55049133826580       2.25468180740268       0.28246791006989
C        -3.72399168522193      -1.79753170549079      -0.55650297816873
H         1.39050630437687       3.92013042859296       0.02863643686459
H         1.35702526745153       2.67190020431926      -1.26405196165183
H         0.89438320094083      -2.00585398529384       1.69818277146594
H         0.82078752782564      -3.71723080715226       1.15709018092957
H         3.62851248405049       2.96091239036795      -0.16959233751315
H         2.92551416183590       2.44370618946820       1.39668129117217
H         3.17370550570717      -2.90682064031782       1.28297201554939
H         2.72197367056106      -3.36383482036757      -0.39355129015227
H         0.40687832865099       2.30763823250564       1.66222362047212
H         0.38697923663855       1.01849365892110       0.40065403007763
H         0.26398987827356      -2.98369438509667      -1.17275780670487
H         0.36901929072919      -1.25748539372550      -0.66339859532233
H        -1.14316753727595       3.68837992191842       0.22670977474640
H        -1.14961676253891       2.36878945770892      -1.00667541893460
H        -1.47188373197341      -1.66355914412831       1.01897154113578
H        -1.63044493914229      -3.34997288966064       0.39419803027975
H         2.56082639948471      -0.09995617597493       1.73180799590632
H         3.39965581764921       1.08356771071781      -2.21509730341565
H         3.24336428432132      -1.57785125869081      -2.14693528012223
H        -2.05487368640472       0.78225185460811       0.77013790424243
H        -2.14036855303570       2.16850624093523       1.91700279425265
H        -2.15796102746070      -2.45353137133827      -1.89221860100897
H        -1.97471248050867      -0.76702762375787      -1.28003333755568
H        -3.71179313762479       3.35144881222973       0.35228625785228
H        -3.63043958893132       1.93655261679223      -0.77895205637624
H        -4.34250652597686       1.73990120727940       0.86623682835626
H        -4.36015272005352      -1.42226432077145      -1.38564406418586
H        -3.85994141403730      -1.13242153300089       0.32276848227663
H        -4.05108671324945      -2.82601508287151      -0.29400588242229
Cl        0.11553823654796       0.50557491421571      -3.19704985398965
