47
C13H26F3NO3S optimized with DFTB in AMS.
N        -1.44349527508649       0.36446397349651       0.31995489110306
C        -2.03248657631079      -0.59861665694622      -0.66028525074902
C        -2.34326550341834       0.22159838067484       1.51626216200860
C        -0.04539493427708      -0.03006533288883       0.71089086644327
C        -2.41677070983419      -1.81653702383610       0.17430510745572
C        -2.70215868817354      -1.26073530818029       1.57776412519024
C        -1.49348100873831       1.75884124274757      -0.22756834280878
C         0.96098999277843      -0.12037872138717      -0.43064066447824
C        -0.89856375085907       2.80449383186016       0.70488627207710
C         2.36027306912759      -0.26853372004132       0.18431257003990
C         3.43185541826761      -0.41006405909231      -0.89797584949223
C         4.83145862421276      -0.47872422817666      -0.27806421815162
C         5.90168648102216      -0.71065811501491      -1.34314319367350
H        -1.31627544158158      -0.81261822136279      -1.45245773775274
H        -2.91790462550922      -0.12748156366568      -1.09485650776941
H        -3.22787856951888       0.83764184279824       1.33884990605936
H        -1.82283569036890       0.57012959647550       2.40736633846665
H        -0.11258727335894      -0.98704913127747       1.22930834178496
H         0.28938188580411       0.71502768000183       1.42902179183032
H        -1.59765319995781      -2.53777540381807       0.20092155557517
H        -3.29036386174969      -2.30882262941698      -0.25614869865671
H        -3.75260180077917      -1.37900544730044       1.84840111788736
H        -2.09376010310281      -1.76530920746647       2.33037824919406
H        -0.96638136690734       1.75256759192188      -1.18504487437009
H        -2.54731984047969       1.98090085923697      -0.41782241452100
H         0.75158668129457      -0.98297039165462      -1.07110789257803
H         0.93218956699769       0.77911255631151      -1.05260160473779
H        -1.17102437721169       3.78850688541046       0.32408541102090
H        -1.28145276974767       2.70233241294222       1.71818068433027
H         0.18688649795822       2.73855723404014       0.73879704164480
H         2.37520672323516      -1.14502530803034       0.83855641705146
H         2.57193427003092       0.60573417430380       0.80659235175458
H         3.37740615361420       0.44406775691116      -1.58287853009987
H         3.24425721862229      -1.31794088095248      -1.48255517323068
H         5.03996061659944       0.45774733106960       0.24914515692357
H         4.86471245970511      -1.29052691518849       0.45559099287436
H         5.89286942333662       0.09666871943436      -2.07712855931008
H         6.88783361549630      -0.74758089875071      -0.87983275614782
H         5.72688940943514      -1.65374288247884      -1.86320034186774
S         0.40982340000935       0.20104071343085       3.84013235067877
O         1.71836205294044       0.00600920753073       3.24695550690050
O        -0.49219590123530      -0.93486481049583       3.69042264602055
O        -0.21785611495727       1.47761021793571       3.50080368215804
C         0.71521280346233       0.31602054754320       5.65847853012504
F         1.52828649701622       1.32813296916601       5.93164278880325
F         1.26692604726952      -0.80154216255087       6.11268400576034
F        -0.42877108637243       0.51137874393065       6.30638515603313
