34
C10H18F3NO2 optimized with ForceField in AMS.
N         0.42604927239965       0.23043342069661       0.04111094524355
C        -0.52032599503485       1.28104488925564      -0.45229722472414
C        -0.09276776940892      -1.13186362304079      -0.29237548036191
C        -1.97994309939118       1.08215164864182      -0.00259397515913
C        -1.53395385909715      -1.37506222613050       0.18770830105308
C         1.72821341040906       0.46468193661845      -0.66661976673975
C        -2.47712014287574      -0.31295487121687      -0.36488278051829
C         0.62637181740350       0.37583100752172       1.50867062349910
C         2.88168945382666      -0.47670815286728      -0.27453674798235
H        -0.52660328201514       1.30058861227305      -1.56727976260222
H        -0.18857082697254       2.29215700455713      -0.12101276949041
H         0.53969376361788      -1.92169311747000       0.16760854197494
H        -0.06745249507738      -1.29483444190518      -1.39443818312001
H        -2.61907438995956       1.83226266811024      -0.51698484646771
H        -2.09303860024457       1.26073440130028       1.08669250754717
H        -1.58039429446817      -1.38860119000722       1.29742977355435
H        -1.87008009674809      -2.37329394706629      -0.16737782486699
H         1.59068676586885       0.36946057069151      -1.76840694666835
H         2.07991180563511       1.50727053700568      -0.48841179700020
H        -3.49423540951527      -0.46505031228141       0.05636371239539
H        -2.54173528633964      -0.41091739415480      -1.47124473376747
H        -0.32856133221237       0.37937039781711       2.06865888866746
H         1.21970828550014      -0.46559675863656       1.92535401515830
H         1.14973599454383       1.32596358788562       1.74757163046486
H         3.77287240137698      -0.22111349195293      -0.88607228658055
H         3.16843628410621      -0.35000585096342       0.78880754253395
H         2.63728831086336      -1.53699929418222      -0.48300058528760
C         1.82438357021856       5.75211193951244       1.35995527811035
O         0.68644861856468       5.69231132727926       1.79817466776053
O         2.18423014420547       6.74542326396892       0.74892363504334
C         2.78049354706718       4.61576957411341       1.56754960587753
F         3.17072743552338       4.11024436807940       0.34138078415558
F         2.18365756664002       3.60772544283425       2.30253158528985
F         3.89487708179004       5.06760477721291       2.24945932190777
