36
C8H20F6NP optimized with ForceField in AMS.
N         0.00163413928048       0.00262590334797      -0.00896612269620
C        -0.85502766739295      -0.25932314150035       1.20059217000303
C        -0.83737743504868       0.26534578020441      -1.23100495956523
C         0.85050944442869      -1.21439947491821      -0.26270931001100
C         0.84779628016517       1.21893152462996       0.25748019464668
C        -1.91521064342609      -1.36781054171769       1.04373373788530
C        -1.90264661661239       1.37057735886596      -1.08823890689686
C         1.91422068827992      -1.07261112921766      -1.36862861724599
C         1.90190695333564       1.07418952488206       1.37219648772977
H        -0.22439414457255      -0.56131723043939       2.06402487869726
H        -1.37497606005668       0.66753462811501       1.52932635224711
H        -0.19594440390025       0.57182520032137      -2.08541804250034
H        -1.34978929678024      -0.66225440995406      -1.56927496472779
H         1.36711884450415      -1.54001004528288       0.66729097155416
H         0.21555521822288      -2.07648018061523      -0.56124252606517
H         1.37293676773395       1.54802440977754      -0.66644364766576
H         0.20993615071586       2.07948738836931       0.55418987984216
H        -2.51103664537881      -1.42536574587350       1.97720534428640
H        -2.62855383210099      -1.15891448643180       0.22368562567264
H        -1.44753208552076      -2.36092305244516       0.89406485315780
H        -2.46867525333684       1.44394565444054      -2.04075627390503
H        -2.63817834462057       1.14703313252537      -0.29139705416133
H        -1.44123892642235       2.36111492603193      -0.90635752246167
H         2.48211670458970      -2.02446145026410      -1.43871669582567
H         1.45199686958547      -0.89578905086744      -2.35961244813500
H         2.64733362416467      -0.27313895120833      -1.14667642530384
H         2.46803275082973       2.02653267668736       1.45010908763205
H         1.43152087337910       0.89318989646057       2.35859877708648
H         2.63851018225644       0.27707186593637       1.15349704451219
P        -2.44846138924062      -2.30711908120974       5.24923143565018
F        -3.65532250926633      -3.00952775238024       6.24940009740792
F        -2.61927154963278      -3.54873858893114       4.07403271317072
F        -3.63464591943170      -1.40424516462867       4.39555626530339
F        -1.15524733160578      -1.62643417810297       4.34822901105952
F        -2.29899919611794      -0.99619590974324       6.34870894677678
F        -1.29857446410655      -3.23933916416394       6.12020446584534
