39
C11H14F6N2O4S2 optimized with DFTB in AMS.
N         1.08492705316273      -0.79292079680187      -0.19770671924616
C        -0.54968601569222       0.05128620891443      -1.82198917368825
C        -0.30946609998853      -0.90710353777074      -0.65005677966861
C        -1.92714932463644      -0.19529175852695      -2.44112790571738
C        -2.13367995308462       0.70958988359212      -3.65393071294212
C         1.48314262213347       0.34881508765116       0.38894186046356
C         1.95613899291913      -1.77851425100165      -0.45031467240872
C         2.80092715062754       0.53306522407941       0.74417951696723
C         3.28991247308560      -1.63923433666277      -0.11749607965439
C         3.72781496878667      -0.47041765199119       0.48414746488607
H         0.21947721969523      -0.11850987309804      -2.57716195047185
H        -0.46716121711660       1.08538245519397      -1.47352053057646
H        -0.47631430988470      -1.93876102143554      -0.96355634199477
H        -0.96179452926997      -0.67155791277185       0.19555627707890
H        -1.99480566692385      -1.24160084544104      -2.75406871434538
H        -2.70890823042576      -0.01193345752562      -1.69526479828846
H        -3.10209885735878       0.50230746592342      -4.10860590507753
H        -2.10122721582799       1.75967198313609      -3.35991098432147
H        -1.35335883887444       0.52825005866306      -4.39262218324091
H         0.72546298165133       1.10348472892006       0.56099214231098
H         1.57527475211759      -2.66325892405714      -0.94510451601036
H         3.09917260163869       1.46343047495117       1.21038266430548
H         3.97608782375013      -2.44138510551419      -0.35613067662066
H         4.77145311228085      -0.33548322625033       0.74026723324257
N         2.16340776957628      -2.35822113957895      -5.09256319075289
S         1.10352227488082      -3.11584833943031      -4.16714411131883
S         2.24749005634354      -0.76664841135953      -4.96926603629663
C        -0.51885154268792      -3.16185570878769      -5.10525665260296
C         3.32737547615201      -0.45672431480331      -3.44774504617436
O         1.49775555828427      -4.49527874213500      -4.07529886221958
O         0.75659867671998      -2.44199558501790      -2.91583859119516
O         1.01581719155841      -0.07502638245867      -4.65904924285884
O         3.04857322896292      -0.28511696572868      -6.05610505137165
F        -1.29779763920000      -4.08567608568161      -4.55908573440199
F        -0.31475022548214      -3.46501639124350      -6.37423648391365
F        -1.14103351711096      -1.99517324182502      -5.03396571159097
F         2.63199502373011       0.17145515200331      -2.48878323390624
F         4.37410917215917       0.29244502880891      -3.74309144350482
F         3.76749156614845      -1.60104342713804      -2.92449867327272
