35
C11H21ClN2 optimized with DFTB in AMS.
N        -0.88348636702047      -1.67992908656207      -0.00752977532658
N         1.27466712983176      -1.55842533577417      -0.03543433928549
C        -2.24260496994742      -1.63469455928619       0.51054896735084
C         2.63369950774476      -1.35626713283226       0.44442951094276
C        -3.01626796477963      -0.44307963317532      -0.05843746196943
C         3.25328027345723      -0.09414629052341      -0.15872900709276
C         0.18221762440943      -1.22380507966131       0.66818252638746
C        -0.44786181768893      -2.45280248164547      -1.06294428794375
C         0.90200255128472      -2.37657124760098      -1.08060640364755
C        -2.39756352001029       0.90025890135187       0.34035930875738
C         2.49638591090844       1.17592233945663       0.24229386239821
C        -3.22349893724015       2.07089085716603      -0.18940399377252
C         3.17526250725967       2.42614617851190      -0.31380205780840
H        -2.73986579849413      -2.56825468867417       0.23484239021272
H        -2.17008929063118      -1.58126391390645       1.60109638769192
H         2.58496952374057      -1.29680004124118       1.53587438242855
H         3.22355312265511      -2.23328700014616       0.16561147920985
H        -4.04217928825550      -0.50069673886243       0.31693705993907
H        -3.05097273507022      -0.52398369105860      -1.14966820764688
H         3.26773307248323      -0.18589751081926      -1.24958053962190
H         4.28879106996619      -0.02996556652704       0.18812218142801
H         0.14994455248956      -0.44345052048040       1.40483453288000
H        -1.13456260936592      -2.97583710845347      -1.70486764808055
H         1.62734166435267      -2.81844581931276      -1.74080228143653
H        -2.33354490375821       0.96209870446371       1.43162556498433
H        -1.38041079801664       0.96608851578512      -0.06065143403408
H         1.47044666227713       1.12310958401738      -0.13779389109484
H         2.44744511208582       1.24138865498223       1.33415768456109
H        -4.23615452616725       2.03815281448609       0.21427919078107
H        -3.28209416928074       2.03560289635757      -1.27811434016284
H        -2.76278695147841       3.01426948176932       0.10373134852108
H         3.21824293095074       2.38526717476489      -1.40304201269835
H         4.19208096400709       2.51243362100526       0.07105738461415
H         2.61611413675564       3.31478810219588      -0.02087569822757
Cl        0.28354319434538      -2.65285814387081       2.56445580776152
