49
C15H31NO2 optimized with ForceField in AMS.
N        -1.54338041618318       0.10046427668789      -0.08947049171460
C        -2.55496153318160       0.48608123449161      -1.12744319037343
C        -1.78372551617826      -1.32448989241360       0.31109765149336
C        -0.19510438911772       0.19285768699724      -0.75031879616005
C        -1.62637082084371       0.98579187899064       1.12472711118746
C        -4.01495726725190       0.26835159209282      -0.69588157635996
C        -3.22769699094808      -1.61348462451492       0.76723743406245
C        -4.24124058562814      -1.18433990787371      -0.28947904194003
C         1.02367726786079      -0.11887488766752       0.15410068348775
C        -1.27861300498374       2.46841106645127       0.89608753546875
C         2.33264656839402       0.03742755154291      -0.63249666181047
C         3.54994605316440      -0.29428050854529       0.23966515611276
C         4.85323904313055      -0.10305681483929      -0.54487115333392
C         6.06968789452702      -0.45531293513192       0.30572654604165
H        -2.40170354379019      -0.11726603921011      -2.05315105139309
H        -2.43020508886351       1.54219371157954      -1.44564759165443
H        -1.11639815471247      -1.62091191024997       1.14904576329195
H        -1.55743708705352      -2.01131508857181      -0.53721705668978
H        -0.05179410480043       1.20173031135520      -1.19771762336212
H        -0.14950115633662      -0.50906115618798      -1.61553929421651
H        -2.64013859356836       0.96675209021530       1.56900775347076
H        -0.96893589553943       0.60158165213625       1.93429398900776
H        -4.68224371371314       0.50673584706466      -1.55228346573417
H        -4.29986788196395       0.95330718194799       0.12887189007744
H        -3.44610949455578      -1.11154024454531       1.73276193141620
H        -3.33695791397938      -2.70574160753305       0.94282201883665
H        -5.27012368016076      -1.30136136945305       0.11325569512784
H        -4.14472712570018      -1.83935109831664      -1.18330018869048
H         1.06096242525348       0.57416869883923       1.01883103335751
H         0.96811871030612      -1.16095667472991       0.53044711012362
H        -0.23514077400841       2.60272308154380       0.54891376205717
H        -1.98047685765592       2.95024255831118       0.18744596080322
H        -1.37000632663998       3.00864087708140       1.86195814513056
H         2.41733113192789       1.08474588494057      -0.99805601251791
H         2.31802040587041      -0.64308141797742      -1.51238425353009
H         3.47833074587621      -1.34939840708875       0.58482549123338
H         3.55804509274287       0.37015495608401       1.13186284505947
H         4.84711636344748      -0.75191116728915      -1.44780948976582
H         4.93951518554152       0.95605916993367      -0.87152076268007
H         6.02390812260424      -1.51895835433690       0.62291798903620
H         6.99495292499441      -0.30181857047116      -0.28909426212321
H         6.11359146611165       0.19518731152540       1.20514586874506
C         6.22501795242330       0.30328793722701      -5.28996176524254
C         5.85155388953268       1.02565751988124      -4.03409722725589
O         4.67665501545780       1.22494327011881      -3.77234433842036
O         6.71729723540966       1.41744680655374      -3.26837061743641
H         5.78776055298724      -0.71698585949324      -5.27672707572486
H         5.83373152963293       0.85711257798845      -6.16902888052185
H         7.32914472706170       0.21975763385884      -5.38105111907691
