42
C10H22F2N2O4S2 optimized with ForceField in AMS.
N        -0.87870643922268      -0.16844267307068       0.05039165094904
C        -2.00980279431540      -0.27922618780342      -0.92121564359037
C        -1.21596333585227       1.01394996800396       0.90214497266801
C         0.39651824109798       0.07801180979143      -0.69907514806449
C        -2.83549952838743       0.98931937383560      -0.83275405172505
C        -2.63918190996499       1.43631270657956       0.58816883480202
C        -0.81006075021930      -1.39654915731550       0.90673874488621
C         1.65734498634690       0.18995898610570       0.19228321430901
C        -0.46405854811186      -2.68937780995666       0.14589952732643
C         2.86908931406883       0.64086364459150      -0.63399494851656
C         4.12238729931556       0.74720600820430       0.23036115670482
H        -2.69354833250453      -1.12452578272388      -0.67636627233256
H        -1.67510968650126      -0.44144728770098      -1.97140644633264
H        -1.11342426530315       0.81468092283222       1.99343253106375
H        -0.56518650569501       1.89134577001530       0.68230702517916
H         0.57162147437394      -0.72755997391266      -1.44623847331037
H         0.29944131221401       1.01617301940655      -1.29398629758420
H        -2.42923392584811       1.75488622478367      -1.53057916055991
H        -3.90808952466726       0.80542125047536      -1.06072109695928
H        -3.34946441548115       0.89874556075351       1.25510828080585
H        -2.78232858912039       2.53367759252272       0.69579957230161
H        -0.06732879586334      -1.26747482442571       1.72430156270708
H        -1.78703034479263      -1.55503107156134       1.41937784925108
H         1.49333562986165       0.91754583389640       1.01436473709266
H         1.89210323681234      -0.79688489523361       0.64304671915134
H        -0.56488139167111      -3.55381577359415       0.83542627197938
H         0.58361641206854      -2.67475497292725      -0.21656107602492
H        -1.14593651905396      -2.85609199487238      -0.71252964866399
H         3.05681201449152      -0.08881351754968      -1.45186523352153
H         2.66356833460510       1.63399208029356      -1.08948733214288
H         4.38611247104266      -0.24606438454341       0.65212084605748
H         3.96132159462539       1.46799977808092       1.05996311963108
H         4.97079688398178       1.10772927093536      -0.38825361910257
N         8.87205175202425       1.01856793188251      -0.34270147707421
S         8.70373600112449       0.72881580131000       1.25897821546995
S         8.55013450305490      -0.13797174714048      -1.45503348076133
F         9.91865220201367      -0.30618092414679       1.76334726805015
F         6.89311811701874      -0.31074777709971      -1.60819802678802
O         8.80278995629708       2.02199283083029       2.01620038607400
O         7.37267172116667       0.08436408208322       1.52687894591966
O         9.13786353271180      -1.45110152322162      -1.01979245567755
O         9.13218759255802       0.26455750368628      -2.77964917674733
