44
C12H24F3NO3S optimized with ForceField in AMS.
N        -0.55152425468624       0.08960333228480      -0.09473598724600
C        -1.54554524925578       0.53607227677516      -1.12472841130717
C        -0.89846996538280      -1.30517598693410       0.33300823078127
C         0.78610289295319       0.06765121763613      -0.78075952679051
C        -0.54187523051783       0.99442487345181       1.10730087799437
C        -3.00860048788383       0.45156218380538      -0.66183340773311
C        -2.35407222312669      -1.46701947327494       0.81929212623041
C        -3.34666687405217      -0.97136633296018      -0.22841684767367
C         2.00110417103829      -0.30171770293732       0.10553985953507
C        -0.14406281725271       2.45647749627620       0.84018241617411
C         3.28234842363553      -0.33583821777121      -0.73922699608692
C         4.49791289684435      -0.71473069076927       0.10034668342550
H        -1.46078551590956      -0.09986766882453      -2.03756509604534
H        -1.33701830957915       1.56908935532531      -1.47327251799155
H        -0.24132249590651      -1.64355545395814       1.16258034831289
H        -0.74726457396037      -2.01966345750503      -0.50911755655523
H         0.99348891322473       1.05295990347835      -1.25496458010199
H         0.76214504354110      -0.65749863009893      -1.62752689178712
H        -1.53517441376026       1.02922387718145       1.59389699118166
H         0.13316679604361       0.59137365599512       1.89297037537147
H        -3.67020967820745       0.73410150095258      -1.50911383621209
H        -3.21294161831119       1.17023693815844       0.15814221864222
H        -2.51524897327365      -0.93514067661260       1.77987863815388
H        -2.55073453005335      -2.54263131020500       1.01766109438394
H        -4.37562876453562      -0.99773216957406       0.19019684326991
H        -3.31697003099052      -1.64554415120796      -1.11279749144216
H         1.86081215585498      -1.30131267621898       0.56477610312465
H         2.13967337777690       0.44893307475981       0.91069006510445
H        -0.16557820895647       3.01114451603024       1.80208018869448
H         0.88389062548182       2.54086934498727       0.43668022336454
H        -0.86405770353244       2.95897558530228       0.16458724641885
H         3.45851798991947       0.66458838347228      -1.19148179646027
H         3.17179185863651      -1.07789248404446      -1.55980796124381
H         4.35754955569226      -1.71956447023247       0.55320902838974
H         4.65967907337491       0.03610536764206       0.90112728245945
H         5.40136750780394      -0.73805268705733      -0.54434122114283
S         4.97193026050844       0.32835042463547       5.53364959648866
O         4.43597641028961       1.76513259969249       5.61365543380331
O         5.17911855747647      -0.04865713499622       7.00769300649350
O         6.40569263589916       0.51955745444704       5.01788486916868
C         3.95063007196949      -0.82593046948295       4.57631407071368
F         3.84256091868048      -0.37471692659830       3.27712774825190
F         2.69149435957801      -0.90506437558509       5.13827991821225
F         4.53752946231136      -2.07651637034059       4.58194606857491
