40
C12H26ClN optimized with ADF in AMS.
N        -0.71802043974309       0.24263560275373      -0.13467426469734
C        -1.30590104092920      -0.46971044860332      -1.33334651576075
C        -1.83426368371581       0.59761189324258       0.84459122382021
C         0.30969449507544      -0.61781858757220       0.58537663076776
C        -0.09028046747839       1.52671695561405      -0.64767391356055
C        -2.12163271814884      -1.69640295767830      -0.96059777930801
C        -2.66931993997164      -0.60923373029892       1.23031940778139
C        -3.24110341264428      -1.33670861339708       0.01612305460456
C         1.56009456732296      -0.93467588908195      -0.20990253622276
C         0.61822225573316       2.38104543309524       0.38588346121974
C         2.48602263081410      -1.81335055444032       0.63698470729195
C         1.19070892268177       3.62724734100181      -0.28564884005349
C         3.78088063700199      -2.15579923476107      -0.09191736541126
H        -0.47264631810455      -0.71710485344815      -2.00625047075631
H        -1.94684251584622       0.27250910880793      -1.83722700490918
H        -2.44781963850382       1.35403072766704       0.32674872644347
H        -1.33284232240505       1.01559637032889       1.75061341527598
H        -0.20609439036781      -1.54737145595657       0.85468884424821
H         0.52156015292583      -0.08542117983168       1.54631086191269
H        -0.91862742830992       2.08925936772748      -1.11078512376915
H         0.60010295841311       1.22884810434102      -1.45347962697488
H        -1.46854394806836      -2.47307373895053      -0.52872525193350
H        -2.52995049257326      -2.11643709174414      -1.89521411094722
H        -3.47390350069856      -0.23684265475219       1.88545935580342
H        -2.06775850930047      -1.28625537748601       1.85971491655196
H        -3.96772116474706      -0.67887344337433      -0.49628712718195
H        -3.78668909244211      -2.24360061133297       0.32204272175538
H         2.10433574265445      -0.01239734420350      -0.47586606354644
H         1.33112642730731      -1.46556394864291      -1.15365050687973
H        -0.06185290517482       2.65730130449549       1.20633779492160
H         1.41937210906752       1.81452811044071       0.88400397439284
H         1.95466089137540      -2.74236836608500       0.91220636022687
H         2.70401320043287      -1.28844079526320       1.58343167581113
H         1.69868034099839       4.25363001288217       0.46160037805730
H         1.92551108273520       3.36764578968815      -1.06542037332698
H         0.39931574574126       4.23595667099917      -0.75258328695257
H         4.34111596147107      -1.24251831827496      -0.34919525047179
H         3.57698916244622      -2.70147814979404      -1.02808591389503
H         4.43313051527624      -2.78587849290136       0.53115574306550
Cl        0.14372803869895       1.03081016598924       3.42935176060695
