48
C12H26F2N2O4S2 optimized with ForceField in AMS.
N        -0.71781561691458       0.31588410433614      -0.15573056271031
C        -1.28420969875629      -0.45805056419049      -1.30820237642376
C        -1.84606181545332       0.73837578884812       0.73776236520487
C         0.27021706150421      -0.49804269003723       0.63623545122251
C        -0.08081119289198       1.54700305397580      -0.73936963201099
C        -2.13833942301606      -1.66778588298586      -0.89293974229737
C        -2.74715633340610      -0.42391382317193       1.20422856879768
C        -3.27781303655738      -1.22921179297919       0.02152394821290
C         1.54797580611614      -0.92981127285349      -0.12316497038424
C         0.65414997442538       2.46715958015119       0.26686496258718
C         2.47457858137410      -1.73489950905041       0.79698620413142
C         1.22340382305557       3.69639408682551      -0.43787391142672
C         3.74948800548932      -2.14867275507175       0.06950409298380
H        -0.48843307847275      -0.80242446715471      -2.00041492311493
H        -1.93901839149915       0.20140478321194      -1.92514004022602
H        -2.49828639171552       1.47855107517287       0.21908358343451
H        -1.46374443010183       1.23665739587216       1.65432944930633
H        -0.19873668807182      -1.42224822166480       1.02532200743454
H         0.57658044136417       0.05675352019309       1.55006671708666
H        -0.85393064671932       2.16584383706801      -1.25203078525132
H         0.63644371753518       1.26871672441560      -1.54378541164737
H        -1.52111300833996      -2.44833287814947      -0.40259989937453
H        -2.57191617376234      -2.13089893327830      -1.80569372720881
H        -3.61033408513217      -0.00513986119926       1.76553751855481
H        -2.20490464620437      -1.08943130537314       1.90764675258532
H        -3.99866570351797      -0.60848488337114      -0.55519223441834
H        -3.81847838382583      -2.12548802826726       0.39555990205194
H         2.10812759366791      -0.04435935008489      -0.48619882393858
H         1.28712188996783      -1.57021120438688      -0.98972912058021
H        -0.03708537113847       2.82196692859829       1.05723005002121
H         1.50183264490984       1.93664545715602       0.74569224388540
H         1.95087405924379      -2.64934227054724       1.15198724938372
H         2.75152624350825      -1.12132975965799       1.68191637286004
H         1.75528581345080       4.33490825472120       0.29886122686075
H         1.94387197747087       3.39159914410090      -1.22681219424826
H         0.40627303725227       4.29245143513908      -0.89749817604693
H         4.29257019688912      -1.24825836990464      -0.28707509223269
H         3.50648214820132      -2.79870873114588      -0.79800016126485
H         4.40882304145877      -2.71179756234869       0.76323259483697
N         9.08571522861764      -0.52993374698892      -0.02727694903813
S         9.13020847040047       0.90442020730318      -0.81391861724495
S         7.67235386319621      -1.17140498925542       0.48968723434871
F         9.02442060284202       2.14521528335338       0.30480196468710
F         6.80609833356000      -1.71671821766160      -0.83430026672341
O        10.42428688905113       1.02451627946702      -1.56652236842178
O         7.97531312276576       1.00812583950044      -1.77033668150129
O         6.86621443090735      -0.12595964582137       1.20819410577435
O         7.94880142307183      -2.32215778160799       1.41420516298312
