69
C19H36F6N2O4S2 optimized with ADF in AMS.
N        -1.07917845405802       1.41186603903909      -0.57134822801436
C        -2.20790481752178       1.65425859717340      -1.56712516079027
C        -0.74018009706274       2.72191544869220       0.10746555731028
C        -1.49267892909825       0.38297723109927       0.46906785591652
C         0.11623158684638       0.91781974057030      -1.37096759522133
C        -3.43091087421303       2.29554337093977      -0.94315696151712
C        -1.94436902086593       3.39091892727980       0.75553810547215
C        -3.07438739467578       3.60951912850421      -0.25087705952339
C        -1.64274792756914      -1.03248695472014      -0.06600793576460
C         1.35812008006723       0.59739980121053      -0.55927698420767
C        -2.65269456942544      -1.82516138195827       0.76458899198202
C         2.43373778000017       0.02147694756510      -1.48494089106126
C        -2.80284628735753      -3.25214011074016       0.24652278120037
C         3.71001250085521      -0.35437601317212      -0.73854184361491
C        -3.89534968823895      -4.04375968868816       0.95933385479184
C         4.76784374977514      -0.95690796302955      -1.66089959236560
C        -4.05909954178967      -5.44715388613773       0.38098896022677
C         6.04491996500609      -1.34850362334297      -0.92393277917176
H        -1.77498279170491       2.31291093928691      -2.33510983702197
H        -2.43274892897671       0.69138321606743      -2.04051184224173
H         0.05025042821232       2.51459110742455       0.84045120578917
H        -0.32300607195157       3.36671861010714      -0.68358460852421
H        -0.74499614366835       0.44284997719196       1.27509407840980
H        -2.44719928526279       0.73387334629566       0.87871981233759
H        -0.22455685980331       0.03675746268304      -1.93158730840917
H         0.32449367473656       1.70623334376553      -2.11051621835506
H        -4.15262784716476       2.45543181162051      -1.76058377821968
H        -3.92645229421299       1.59917800897342      -0.24751704881616
H        -2.29985075454519       2.79498139191497       1.61300426198187
H        -1.59666385313457       4.35142314863068       1.17114577465064
H        -3.95446716861070       4.04191405815199       0.25014114925020
H        -2.74371889830419       4.34100722215583      -1.01146560975596
H        -1.99261973412584      -1.02869218649529      -1.10981929010550
H        -0.66731108857077      -1.54816998564993      -0.06904622090923
H         1.13189949865482      -0.14628612743413       0.22320631175942
H         1.75539357313803       1.49601647346241      -0.05606941875571
H        -3.63319226769900      -1.31733272329990       0.69940332819499
H        -2.36205987191134      -1.83591790137188       1.83250333116991
H         2.67103467763166       0.75741335341397      -2.27451618886118
H         2.02703435539595      -0.86054871739344      -2.00733557468218
H        -3.03216044001730      -3.20947672253452      -0.83138176048354
H        -1.83760187142618      -3.78429083312295       0.34287126572359
H         4.12679059529414       0.53849285309224      -0.23403718962762
H         3.46837106313244      -1.08039363753462       0.06108353339143
H        -3.66636124962503      -4.10524825413174       2.03972979732985
H        -4.85046620337008      -3.49450159918899       0.87059220923700
H         4.34016272545290      -1.84181499238027      -2.16546221476531
H         5.00530064804676      -0.23161152696688      -2.46003781543903
H        -4.85588514406128      -6.00569655542918       0.89495719747856
H        -3.12455074687997      -6.02370349584372       0.47550418979602
H        -4.31246407990125      -5.39670240350836      -0.69001284331444
H         6.50733206226692      -0.47276707987592      -0.43975808723349
H         5.83469580956927      -2.09294233633730      -0.13926669832610
H         6.78516518593202      -1.78402886149567      -1.61171712371042
N        -2.11375651273463      -1.08491613663818      -3.47653342107013
S        -0.96170853291154      -1.24248384137262      -4.59487549642783
S        -3.70350651069838      -1.21187630296070      -3.76455449644685
C        -0.88964549822516       0.42718566575570      -5.49410187016297
C        -4.04974155482062      -3.06390494063120      -4.02760952469762
O         0.30413497397930      -1.24942779671166      -3.86064373359739
O        -1.21707845975914      -2.21156220901623      -5.64827058830747
O        -4.18541722414269      -0.56945385990723      -4.97916093743117
O        -4.33434051381146      -0.91427056047933      -2.47553367300779
F         0.32128572269155       0.56050310651522      -6.08864498815165
F        -1.02823040802067       1.46345170634465      -4.60670419536430
F        -1.84583793469106       0.54372947477896      -6.43036722712740
F        -5.34630415298130      -3.30579249940804      -3.70995307433043
F        -3.26568812398433      -3.82704394191287      -3.22502599148650
F        -3.84436310669954      -3.42406849638460      -5.30518998658053
