47
C15H28N2O2 optimized with DFTB in AMS.
N         1.79843927173663       2.06180844303613       0.15614424713105
N        -0.19679318154980       2.29592206720540      -0.56297721076079
C         3.19529595980847       1.65718589987431       0.23077417441108
C        -1.37928326869217       2.21834593037770      -1.41399955289106
C         3.31545980591211       0.31980804668946       0.97006550275395
C        -1.69370050400099       0.76119952562860      -1.75943769947283
C         2.68632066154938      -0.81968871822601       0.16449028781243
C        -1.89627827301895      -0.10820368268470      -0.51556465096971
C         1.02992759864261       1.90284044953125      -0.92629387249592
C         1.06173395979853       2.53862441312803       1.21062601266564
C        -0.20652323896518       2.68679826923551       0.75210455259387
C         2.68424273942488      -2.14085928859257       0.93638367804955
C        -1.96743114096393      -1.58843685340795      -0.90290413696957
C         2.07229383126442      -3.25263713051067       0.08558079535349
C        -2.13452804039449      -2.47701617851716       0.32794806944254
H         3.75447752982983       2.43816135207755       0.75429380526487
H         3.56782237294708       1.56772202780391      -0.79336924773519
H        -1.18190744790422       2.78681363957078      -2.32784213307044
H        -2.20855979022338       2.68717143018937      -0.87650544613244
H         2.82905190182600       0.40549710931107       1.94746533527780
H         4.37785960061777       0.11921383787768       1.13837521849275
H        -2.59395951096072       0.74654735011342      -2.38057617009557
H        -0.86689818442628       0.35214429811645      -2.34436688627433
H         3.23754090790922      -0.94431688714556      -0.77211657573431
H         1.65650007068123      -0.55689607624684      -0.09391936381884
H        -2.81066498173864       0.19280810423654       0.00917955843886
H        -1.05400120346678       0.03789053476648       0.16905752450854
H         1.46012307463563       1.46001176360550      -1.98857784727604
H         1.49202574803886       2.73631556761426       2.17688602389984
H        -1.09766218641173       3.03727365497084       1.24316304471085
H         2.10786226654401      -2.02045666852250       1.86077045060176
H         3.70909307323351      -2.41179482754791       1.21444858680597
H        -2.80664725632143      -1.74948883492263      -1.58806580447320
H        -1.04557771821622      -1.85890883251006      -1.42694886820597
H         2.67463917171928      -3.42028435621474      -0.80794499492124
H         1.06499221412201      -2.97786348146160      -0.22828239205364
H         2.02308528737433      -4.18156809602856       0.65457344207687
H        -3.05678888638138      -2.23306204146973       0.85860137041906
H        -1.29544785781788      -2.34202751475919       1.01242190874342
H        -2.17251813579826      -3.52499360767137       0.02958953315315
C         2.33395979203802      -1.10473114756663      -4.28250870946239
C         1.72297897184864      -0.28400964149728      -3.14059024325215
O         0.95365088334796      -0.83054354584321      -2.34592447240768
O         2.07482560345235       0.93776837257371      -3.09954803657039
H         3.41757517771909      -1.11287562575058      -4.17400474953479
H         1.95283229087350      -2.12325664353222      -4.25960773655318
H         2.08558213335708      -0.63581988550424      -5.23340848217564
