36
C10H17F3N2O3S optimized with DFTB in AMS.
N         0.36291810522023      -1.66742169535938       0.21936502396924
N        -1.71200376819642      -1.13219366055944       0.40181539529287
C         1.76078460227501      -1.88496872955731       0.57100678404499
C         2.66179535312306      -0.85216078528514      -0.10652846575428
C         2.38460865995293       0.57098419553179       0.38823858082007
C        -0.51941084235630      -1.02167276806147       0.97784671614603
C        -0.28312608887924      -2.21428449365617      -0.85570707911582
C        -1.59421703333068      -1.88132761638540      -0.73879287519510
C        -2.97191010593035      -0.71285672550502       1.00619789407023
C         3.31992380599172       1.58070901130134      -0.27401030905723
C        -3.64523086237508       0.36124129786552       0.16284812457231
H         1.83081568239141      -1.82997999855030       1.66042314335317
H         2.02442160027815      -2.89560976782475       0.25027420771274
H         2.51936588675760      -0.90305968447113      -1.19073087357395
H         3.69931039851208      -1.12123970989710       0.11057120910070
H         1.34554113705532       0.83810183433965       0.16561100919378
H         2.51477649329286       0.60901128410564       1.47473112590623
H        -0.30934145736474      -0.52347683657277       1.90725469460129
H         0.23302916049891      -2.80651660262988      -1.59050715759700
H        -3.59738699519325      -1.60513872970957       1.09683827771440
H        -2.74588292920345      -0.34298039095592       2.00842546414408
H        -2.44239231822999      -2.12751256814704      -1.35263132582723
H         3.19092060787913       1.56808336455096      -1.35708997159398
H         4.35975575129577       1.34513674790753      -0.04491583422594
H         3.10213047346826       2.58438498488525       0.09087287949281
H        -2.99863809231509       1.23378647064199       0.06906894010542
H        -4.57520567858474       0.66117201595063       0.64343482395796
H        -3.87159655369316      -0.01703533420309      -0.83360126036898
S        -1.03119638233501      -3.59457536933742       2.92064367952183
O         0.03052157169028      -2.58736996173398       2.93700975248785
O        -2.15011812950044      -3.23847705161972       2.05996113541762
O        -1.37662812472429      -4.13987114628190       4.20418298708721
C        -0.22961442454934      -4.99110488211330       1.99148968733576
F         0.76987263573468      -5.53662499484523       2.67185895481836
F         0.28505577253746      -4.51657848067897       0.83742281355200
F        -1.09540100049330      -5.94451412843892       1.67493466999058
