23
C7H13ClN2 optimized with DFTB in AMS.
N         1.04923032223521       0.54491839829093      -0.15224505993149
N        -1.11482990963629       0.53510185391035      -0.11890728490362
C        -0.03302786795525      -0.21600409864975      -0.38268647177938
C         2.39377448786521       0.13345328451045      -0.53484006978397
C        -2.46581307542616       0.10966919703283      -0.46148089833519
C         0.64087209271053       1.84007052146584       0.08422366524740
C        -0.71091253981956       1.83404776045440       0.10523768112216
C         2.92466103797683      -0.93618925689808       0.41134358316986
C        -2.96174117763484      -0.95748136794065       0.50619550275974
H        -0.02847140214956      -1.29017629544577      -0.39888735813077
H         2.32892062406268      -0.24622268763183      -1.56142958284713
H         3.03471673048793       1.01806229252687      -0.51524985400526
H        -3.11380717380976       0.98888644443935      -0.43078991215845
H        -2.42483016008901      -0.27644665807270      -1.48706378021514
H         1.34558558055670       2.63977747913345       0.22954067316460
H        -1.42034613990973       2.62536684739265       0.27183937556955
H         2.94506055349971      -0.56364196768326       1.43561821238119
H         3.93643668267469      -1.20830800470553       0.11382087636312
H         2.29792334003215      -1.82652514412137       0.37367617529494
H        -2.32017946779701      -1.83722887607373       0.46808044873381
H        -3.97358952469020      -1.25055225040739       0.22968848178016
H        -2.97077879340043      -0.57288056505173       1.52614118719409
Cl       -0.07021637578383      -0.38832401317534      -2.75235867519024
