40
C12H22F3NO2 optimized with ForceField in AMS.
N        -0.51659419022948       0.01447050330388       0.00210100876463
C        -1.43103293499154      -0.55746872944148      -1.03431885408243
C        -1.42131319398341       0.60939379240452       1.03355764774846
C        -2.84251700172809      -0.08460592917055      -0.74206538397133
C        -2.84092615004488       0.16228275451956       0.74064416785830
C         0.33234907166530       1.08455718723757      -0.61596329845074
C         0.30219692898297      -1.07681092387283       0.62431992068685
C         1.34918156575908       1.73599282545827       0.35221422507955
C         1.30522960325775      -1.75391443056934      -0.34179555299288
C         2.06272947224747       2.90884310329651      -0.31404895349510
C         1.97047273106578      -2.95918828737460       0.31645044331925
H        -1.14683315035980      -0.27754637358644      -2.07451170008022
H        -1.45441345533600      -1.67134202318522      -1.00810779535222
H        -1.14428758866785       0.32946528948621       2.07564649385596
H        -1.42266169967148       1.72338657065638       1.00110144147158
H        -3.04392930895808       0.86491130586047      -1.28546820195552
H        -3.60192602654782      -0.84554845399586      -1.02725290699655
H        -3.05985132132875      -0.78343627104706       1.28395751581832
H        -3.58653515378576       0.93688956136133       1.02538010995123
H         0.89284819567411       0.68334001974259      -1.48688774892709
H        -0.32313308965105       1.88483895453003      -1.03257842625404
H         0.86768241850104      -0.69085383619696       1.50137882308945
H        -0.37627235021856      -1.86038879702640       1.03591688638614
H         0.84443060277438       2.10545367208364       1.26888119796668
H         2.12320303705409       1.00116104021100       0.65529863749710
H         2.10658676900795      -1.04289603690652      -0.63055719065546
H         0.79752753751922      -2.09575730956069      -1.26757905687605
H         2.62235605942040       2.56044193589886      -1.20854788576300
H         1.32961809536666       3.68583788103512      -0.61853682996476
H         2.78248638350248       3.36097542142434       0.40078631981279
H         2.53721506539237      -2.64112721503382       1.21762325279026
H         1.20704975847715      -3.71150499980582       0.60842719209900
H         2.67685317806568      -3.43091473017053      -0.39914358869247
C         0.86093141813924       0.53674166075236      -5.82914975314472
O        -0.18821690830391       0.98600903189027      -6.26238609284661
O         1.91047781854526       1.10788763280174      -6.07951735196906
C         0.86864748236461      -0.70892380243745      -4.99430733175070
F         1.65259256183401      -1.66972223908532      -5.60456931413284
F        -0.41526196931687      -1.20331018932097      -4.84372928823118
F         1.39068623990632      -0.42557115096672      -3.74746937471057
