70
C20H30F18NP optimized with ADF in AMS.
N         0.47856940081677       2.86231466825100      -0.40178772695439
C         1.33398220704443       3.58032439570299       0.62981458557047
C         0.34247272916011       3.90825189265709      -1.49822825015662
C         1.20013857166698       1.65277937352611      -0.95580848309752
C        -0.86534260350232       2.50992037338150       0.20343672804660
C         2.30751756647847       4.45904326853294      -0.16256947323416
C         1.71356862786950       4.56624744356456      -1.58939734903955
C         1.33921765768029       0.48236137835723       0.00159157178376
C        -1.83239206944005       1.82686531712944      -0.74456220515449
C         2.19326235698608      -0.62387922132040      -0.62350798430311
C        -3.19711526971434       1.69298273998986      -0.06183453317301
C         2.34015591675280      -1.83398706381902       0.29735820643121
C        -4.26860946735681       1.12683695850199      -0.98974751781415
C         3.19079147835861      -2.94234449774828      -0.31609981907838
C        -5.63466827655615       1.05722763864584      -0.31276294466676
H         1.80536363851425       2.83612760975771       1.28207648838971
H         0.64257228060624       4.19173261753657       1.21823734697069
H        -0.41290869968043       4.61891517672806      -1.14717538447006
H        -0.00059577815295       3.42422858671604      -2.42057869940592
H         2.19114787871256       2.00730098850216      -1.27588664612706
H         0.64541557439399       1.34725632934412      -1.85515634391497
H        -1.28673502795965       3.46261667431521       0.54776244438117
H        -0.65697143121374       1.89228225656849       1.08999072463874
H         3.32104708442841       4.03259346952197      -0.18499450214009
H         2.36854629600887       5.44534192369410       0.31952685963225
H         1.59794663503837       5.61051531905376      -1.91017834664842
H         2.35620454629290       4.06031578087417      -2.32574638405491
H         0.34764103863123       0.07212123451352       0.25208728861165
H         1.80654463311230       0.80119474930365       0.94838786617503
H        -1.46972781776470       0.82978204557324      -1.05150925507808
H        -1.95688353755931       2.43387971816109      -1.65679594578131
H         3.19514897465091      -0.22526061873830      -0.86882486778124
H         1.74164438414027      -0.94464843325930      -1.58067964090980
H        -3.51390383507269       2.68729385269273       0.29694806091907
H        -3.10223434482223       1.04874016076724       0.83262667088855
H         1.33564305258413      -2.22528542747575       0.54101548158499
H         2.78631601369309      -1.50696841420785       1.25421804798738
H        -3.96661853217642       0.12090222165879      -1.33750873899981
H        -4.33528942386093       1.76567963281413      -1.88931680161820
H         3.28098202785842      -3.80083412621663       0.36597475033801
H         2.74774341260183      -3.30525437128363      -1.25729751236159
H         4.20770245625225      -2.58240541342529      -0.54014611148716
H        -6.39956812016829       0.64546617697544      -0.98818456886179
H        -5.59836418630301       0.42156684380741       0.58631663620897
H        -5.96263987323909       2.06143174057328      -0.00035514301383
P        -2.37966810853946       6.51972769297225       1.06340375443593
F        -3.17390643689391       5.06992666402534       1.34651190699045
F        -3.76479187545000       7.37461617278068       1.32687002677599
F        -0.91293654325955       5.68326898621312       0.74625711221295
C        -1.97786470379732       6.42393819778579       3.01870262828567
C        -2.81561117328424       6.18085125651912      -0.85891643984607
C        -1.48236511718862       8.27929353268870       0.71705734624675
C        -1.10748933638865       5.23652620405041       3.55790630330858
C        -4.20740438426153       6.60560833430319      -1.40919840945901
C         0.06514473859186       8.33376834929572       0.54961698733597
F        -3.17825827577386       6.31807854688592       3.68131480131604
F        -1.33501469616901       7.52568532477135       3.53823160944630
F        -2.77624172767654       4.80470520763037      -1.09018642293552
F        -1.86958613365466       6.69185067888650      -1.72223690782883
F        -1.78379434851063       9.15903474656762       1.72566341757101
F        -1.99380370479786       8.85109626102111      -0.42835598351789
F        -1.16376158712934       5.22398100440384       4.91567914702407
F         0.20391153163000       5.38368567239444       3.21553172613463
F        -1.50701463505681       4.01176638201808       3.12704562765299
F        -4.30928967832083       6.21928461769285      -2.71746513656100
F        -5.19848173517463       5.99058122162824      -0.72261553034745
F        -4.39805909956154       7.93739362697212      -1.36065906571792
F         0.47698483615887       9.62448191060691       0.44152993046552
F         0.47484799312013       7.68374850419623      -0.57530277099724
F         0.70958955969714       7.78217521209111       1.60628050987622
