30
C8H8F6N2O4S2 optimized with DFTB in AMS.
N         2.05442026172397       0.17892488973629      -0.33250026145077
C         1.90559218534980       1.34736460634008       0.31406288463488
C         2.44272780804531      -0.92820754537505       0.31387450193802
C         1.90854907127737       0.16873314737355      -1.78674810886750
C         2.10264914572882       1.42134115143287       1.67550498661700
C         2.63415175776818      -0.90843665231004       1.68206060030833
C         2.46849550629437       0.27907482925263       2.37704449705985
H         1.64053716902583       2.20954321550496      -0.28416867621738
H         2.60760783205178      -1.81721550217558      -0.28111771415595
H         1.93118266062108      -0.85588598635559      -2.14868421665410
H         0.96704693177320       0.64517363220121      -2.05589538967507
H         2.74137705431456       0.73272563532133      -2.20888932013120
H         1.99720532731151       2.37531021228550       2.17494656946970
H         2.95528622901220      -1.81267427517868       2.18201425352812
H         2.64091465986065       0.32213989933392       3.44543021102001
N         6.46588656885390       1.33008508316526      -1.06624882885072
S         5.39263007066214       2.48063716712103      -0.78455646504639
S         6.00325291171481      -0.19066540824925      -0.90950270580048
C         5.44089748513475       2.80311560845642       1.06806580190630
C         5.29765533464810      -0.68908201149318      -2.58448882102187
O         5.88142816674376       3.69772999962765      -1.36498037733553
O         3.99662438394131       2.13030564436456      -1.02255150779714
O         4.88735663633126      -0.43706373614734      -0.00794661756833
O         7.17568670561395      -1.00480407667394      -0.76815675583930
F         4.26118330537900       3.30050662557677       1.44998940478855
F         6.38231672971779       3.67659049575037       1.36705638990334
F         5.65238043118707       1.69054009987660       1.75431651741613
F         6.20060087396313      -1.28932775635853      -3.33146677541442
F         4.82138916818135       0.36025034369248      -3.24375538377006
F         4.27707744266906      -1.53485389849630      -2.38736214619400
