31
C9H19NO2 optimized with ForceField in AMS.
N         0.15422229022782       0.28373876851456      -0.07754699797290
C        -0.43884845838568      -1.03214874707261      -0.44056452694302
C        -0.94651257534181       1.05660121896798       0.57432034550347
C        -1.94623646975350      -0.88172613329946      -0.41384355711752
C        -2.18168970940266       0.17064873185779       0.63706811214287
C         1.28914358115431       0.12594423420522       0.88284661589387
C         0.60069590745257       1.00040559814817      -1.30084677942553
C         2.48460731174984      -0.67499730741781       0.33771462697156
H        -0.17394493982928      -1.82123271563151       0.30085278257419
H        -0.10576186682946      -1.40106418944308      -1.43792865670405
H        -1.21123260230645       1.98146803947982       0.00961471046310
H        -0.69255181677483       1.40034637451151       1.60393656578484
H        -2.45212212197374      -1.83770597714359      -0.15603195683839
H        -2.30860624183993      -0.51894542769561      -1.40094205816885
H        -3.11370897698621       0.74286275613044       0.43761253621225
H        -2.24860651785425      -0.31024320364136       1.63853504139476
H         1.66632147880767       1.12617003489290       1.19672539370179
H         0.93440700794048      -0.38222005823724       1.80938014779103
H         1.33648883734954       0.40378203867866      -1.88105148129702
H        -0.25643777294052       1.19784328130849      -1.98354726815304
H         1.06936081978214       1.97557451173801      -1.03933696552775
H         3.19972537626005      -0.86684404071512       1.16515540170504
H         2.16895763542818      -1.65463516740321      -0.07509807115921
H         3.02626545461130      -0.10065208371979      -0.44127684971535
C         6.14853305639916      -1.41105570212744      -3.55860369292284
C         5.81490748473738      -2.05503313438860      -2.24984890275646
O         5.57521042646413      -1.36313408968559      -1.27388378207252
O         5.78022732903706      -3.27114415863990      -2.15328780185596
H         5.28075267133527      -0.81581617649253      -3.91221389068652
H         7.02465642464441      -0.74067103257658      -3.43273254786034
H         6.39248337343701      -2.17978813240254      -4.32285786766148
