36
C10H12F6N2O4S2 optimized with ForceField in AMS.
N        -0.49399335432100      -0.00096165311834      -0.40561667375962
C         0.93460182445392      -0.00888649885805      -0.74448414595214
C         1.77835904488690      -0.01532182615143       0.53321368536389
C         3.26719126934531      -0.05373547062536       0.21017145418481
C        -1.14622887033131       1.18994466701906      -0.23624083953244
C        -1.15632491154860      -1.18520064356142      -0.22928959539969
C        -2.49846522674714       1.21435940786176       0.11595253205724
C        -2.50851353412048      -1.19632869033054       0.12318027835284
C        -3.18090898871041       0.01233032410097       0.29695042117523
H         1.17925652279142      -0.90274881972553      -1.36145970619936
H         1.19031375485088       0.88438189801415      -1.35800727156001
H         1.51979829580273      -0.90551468097851       1.14681284974786
H         1.55901170617804       0.89887823201107       1.12674224722194
H         3.52263798071927      -0.99664846280251      -0.31781659268651
H         3.85150198563352      -0.00139313160973       1.15306722417123
H         3.54254101002044       0.80868580325257      -0.43249550708897
H        -0.62010674104815       2.12845377694344      -0.36523772035035
H        -0.63803822134168      -2.12874898984703      -0.35297735409063
H        -3.01186815628774       2.15772126005947       0.25059966468592
H        -3.02947063511122      -2.13469366560934       0.26357194619502
H        -4.22779254358927       0.01738095524331       0.57242134302181
N         4.27860928547971       4.99922104827816       3.26162911139388
S         2.86033455186388       4.88698404389458       4.07600892178851
S         5.12726572966128       3.68404439151361       2.77372189933023
C         3.19075776697237       4.92106259368203       5.82528510685621
C         4.78086043022016       3.37757980462534       1.05581635286426
O         1.99274232397652       6.06187102997996       3.72430296556913
O         2.14523026845538       3.61249028663251       3.72188480262815
O         4.75481245361631       2.47534448064939       3.58700510132728
O         6.59630857429259       3.95751534839922       2.92764988536217
F         2.00026069343272       4.86145624419663       6.52481600493604
F         3.85133845030452       6.09188262876660       6.14554229729185
F         3.98006429983281       3.84133294728733       6.17148388898114
F         5.49540085933905       2.27430881956349       0.62923369972177
F         5.15115716099242       4.47784281306331       0.30677826929051
F         3.42872218993484       3.14673281037983       0.89060602710078
