50
C14H15F18N2P optimized with DFTB in AMS.
N        -1.43378531309036      -1.56478831410885       0.46749218848260
N         0.54083389388937      -2.38504436853981       0.22965299871560
C        -2.57443093019118      -0.86186281691714       1.04484434569900
C        -2.63503967992910       0.58270995536348       0.54269199304036
C        -0.21906881959284      -1.62270553507757       1.00921796927757
C        -1.44721585329072      -2.30234809280442      -0.68452250199160
C         1.93537106855836      -2.72657262673640       0.49325052921982
C        -0.19962607365506      -2.82125161200429      -0.83417315704304
C        -1.44352626564396       1.41204634224944       1.01556483492815
C         2.85674423626179      -1.89039619370914      -0.38548642938099
H        -2.46647242268855      -0.89384523561742       2.13126199155512
H        -3.47722837426603      -1.40570683216106       0.75781332777115
H        -2.68213876792832       0.58506777745774      -0.55063297795996
H        -3.56091602683451       1.02264618212889       0.92308690623643
H         0.08119095459330      -1.17567611811163       1.94040949959801
H        -2.33192391444324      -2.40740062801998      -1.28771229769876
H         2.12444467950487      -2.53618080006028       1.55102196063550
H         2.06098457217857      -3.79381552606854       0.29679715330181
H         0.20964732964958      -3.46632197861473      -1.59170467074772
H        -0.51341755112305       1.02307779647385       0.59894490348514
H        -1.37356916636795       1.39405594077735       2.10336150009402
H        -1.56170817725547       2.44489093985839       0.68992157599985
H         2.66381240567210      -2.08373597431044      -1.44047530603668
H         3.89046370286343      -2.14946437076108      -0.16226154257036
H         2.70821749080426      -0.82892192806333      -0.18848367873305
P         0.33615124427919      -3.70482989052438       4.54659008409680
F         1.54628059298144      -3.24552851961166       5.60026939693069
F         0.90015086834155      -2.51945270996264       3.42437257629832
F        -0.25904310128518      -4.86465946418841       5.58454011291599
C         1.58519603980144      -5.02331803670351       3.81315943790027
C        -0.76681697225646      -2.35968825815129       5.46113156729518
C        -1.05495085677981      -4.13332910424540       3.15050160945241
C         2.77341177799685      -5.47974707155450       4.70328530867079
C        -0.54349976231570      -0.86372218217067       5.11389136916647
C        -2.18205510959720      -5.18259074354810       3.33477335318560
F         2.14900302178270      -4.59616535297568       2.65686643898562
F         0.88162037739620      -6.12898905128073       3.51387976748438
F        -0.54510377787017      -2.47383980309748       6.77841846277882
F        -2.07886894541050      -2.59785397980130       5.26736961437052
F        -0.41796225364280      -4.47129612267430       2.00278365301182
F        -1.69850313011503      -2.96677315917596       2.86040937831083
F         3.34880158501943      -6.55890075782055       4.16340630061768
F         2.38502823788685      -5.79630951519277       5.93048501708749
F         3.70053543521842      -4.52775934243402       4.77657786099516
F         0.72328379189796      -0.49879548634423       5.24677184492413
F        -0.90869964139743      -0.60582747183669       3.83882945030673
F        -1.28606722756904      -0.07793698768003       5.88984822641878
F        -1.70345449270058      -6.41667496940421       3.40694534288168
F        -3.00747007920393      -5.12725530481289       2.27656437121569
F        -2.90486453263354      -4.94521355373168       4.42106614202014
