51
C13H28F2N2O4S2 optimized with ForceField in AMS.
N        -0.70227587721951       0.52283811836534      -0.20580152953629
C        -1.67842319905372       0.26395234091500      -1.31442130276715
C        -1.25546437357521       1.60203663375785       0.67746095710390
C         0.55601833865843       1.03219137410205      -0.85352260231817
C        -0.44290801560967      -0.71299766401159       0.61397340820698
C        -3.09752866744819      -0.08549692082202      -0.83390440596996
C        -2.67665070000931       1.31676010629056       1.20461195168745
C        -3.64385840372679       1.02059514759840       0.06275831120912
C         1.74767424199371       1.29333311917382       0.10175983849100
C         0.22705186201988      -1.89003186282970      -0.13699307275296
C         2.94845232160419       1.85305776903858      -0.67119726327909
C         0.45862059701919      -3.07384690498489       0.81122307828471
C         4.13558407188758       2.10001912532654       0.25548501496441
C         1.12052136449041      -4.24216187898794       0.08585063587902
H        -1.32300507640892      -0.53757108867924      -1.99421760685965
H        -1.77220977627223       1.16923301100203      -1.95930758970027
H        -1.29174471071233       2.57298941437114       0.13125770145394
H        -0.60996950039904       1.76022530038359       1.56768030196070
H         0.34523276133869       1.98642836787187      -1.39021313816806
H         0.89491388590662       0.33156192846848      -1.64894295513996
H        -1.38261081822871      -1.10400757624359       1.04945655751564
H         0.18202768977933      -0.46067889806724       1.49855211814346
H        -3.11681254154505      -1.06129450012670      -0.30651906801673
H        -3.76208338131185      -0.18752884096661      -1.71898792969338
H        -3.04045822140073       2.20987485876973       1.75732331335213
H        -2.67055842386314       0.47574442162410       1.92880035950768
H        -3.80036898720591       1.94327657913658      -0.53870725660829
H        -4.62676115685450       0.71066718468365       0.47898352355497
H         2.06652146369304       0.35269523957006       0.59545406825606
H         1.46722231768834       2.03010854424807       0.88124767030906
H         1.20954418227879      -1.58656479719159      -0.55139529841900
H        -0.42080095817436      -2.23869941381211      -0.96626686630794
H         2.66753380710333       2.81320483883422      -1.15646544062419
H         3.25525106728515       1.13489987717936      -1.46270452982000
H        -0.51333567168194      -3.41600583682305       1.22908958229927
H         1.11217817151966      -2.75861670929381       1.65370905681121
H         4.47364856829778       1.14497851134813       0.71096708522801
H         3.85641157587842       2.81206487898562       1.06114213804036
H         4.97548352563749       2.53477739938527      -0.32593937930226
H         2.11231927928624      -3.93739274706075      -0.31096290107411
H         0.48017871162931      -4.58876875008663      -0.75315708009071
H         1.26492595377649      -5.08531516605419       0.79378532888659
N         7.35136921429656      -1.37942594568353      -1.68861418350930
S         7.39382693363302      -0.70822567282537      -0.19765659269315
S         8.56380138506246      -1.14113019751708      -2.76067697377126
F         7.26661675148320       0.95480288196213      -0.33581172697336
F         9.91488584609193      -1.99674173694993      -2.26596732068530
O         6.25136141335393      -1.23447626524363       0.62418864256894
O         8.69653817176972      -1.04050051974260       0.47467195035697
O         8.91056525626957       0.32004340146169      -2.82745311970738
O         8.13651842896860      -1.62284505555003      -4.11820201608364
