43
C13H27NO2 optimized with ForceField in AMS.
N        -0.22831758458589       0.30196040359448      -0.15817667346398
C        -0.92816304220265       1.26634544389187       0.75345025669158
C        -1.12544732694758       0.00854710002519      -1.32359407138148
C         0.12739479349201      -0.94597276477497       0.60544106977670
C         0.99498908909512       0.97467925581257      -0.71790782611673
C        -2.33362245902277       0.80951389493985       1.19534482603290
C        -2.51654417805207      -0.51452439560011      -0.92831352160699
C        -3.21505665575672       0.47831411965206      -0.00511622145458
C         0.92972396532581      -2.00895250283813      -0.18433456703380
C         2.11419143445782       1.29639437058746       0.30381151138932
C         1.25635753621845      -3.20994242887081       0.69961750910445
C         3.26710729791845       2.03700478582949      -0.36956003625782
H        -0.34028755824470       1.43850826645547       1.68030566248335
H        -1.04291441339335       2.25791013554874       0.25728227810362
H        -1.28912406494494       0.93582045945709      -1.92154857225366
H        -0.65898567982357      -0.70931920569787      -2.02949631129253
H         0.69970488841090      -0.68367199996262       1.52224676730213
H        -0.78120902773222      -1.44913405761566       0.98895669880530
H         1.43690576485217       0.36121842147079      -1.53446156491039
H         0.70735924471669       1.93302356324492      -1.20994651388579
H        -2.27151669409914      -0.06438567595074       1.87646207078765
H        -2.81213384916567       1.62999672676989       1.77282893671632
H        -3.12891081255046      -0.63954977845397      -1.84750763978853
H        -2.45109649125655      -1.51305249776995      -0.44951981971640
H        -4.17620390232400       0.04583544681125       0.34721778801310
H        -3.44288151808759       1.41142392145177      -0.56641380912622
H         0.34464205649232      -2.38331743408731      -1.04788171522279
H         1.88988162959307      -1.59595521410954      -0.55295975004281
H         1.73424186361731       1.94079682874539       1.12131647426484
H         2.52780426771833       0.36658036729958       0.74458117024152
H         1.82278546105317      -3.96239945904919       0.11136983686696
H         0.32274952506227      -3.68210579862739       1.07320057361430
H         1.87934419841181      -2.89446059366840       1.56202147758499
H         4.06292259725833       2.24412218283004       0.37669089257576
H         2.91437422871411       3.00410146911968      -0.78720081960530
H         3.69907153937065       1.41989089921695      -1.18585778203262
C         2.81908232466107      -2.13743860834028       4.31999447552213
C         3.73096682153767      -2.04880792454092       5.50273866994334
O         4.80050235755663      -2.63615850479733       5.49280358835074
O         3.41006938889581      -1.39107228597514       6.47981334578947
H         3.33126270441384      -1.72984397582060       3.42306954092954
H         2.54981925781307      -3.19895619041664       4.13658517602310
H         1.88823201473299      -1.55684321298697       4.49606004567931
