24
C6H9F3N2O3S optimized with ForceField in AMS.
N         1.07507090951399      -0.05919868979263       0.18527803378734
N        -1.14538286820442      -0.01800374614156       0.11044093952797
C        -0.04618320662568      -0.79528666708830       0.05999230760124
C         0.67283009688572       1.21965699207479       0.32233911434672
C        -0.70647938205493       1.24557818753744       0.27329347540126
C         2.45088180721225      -0.53518633634507       0.12168635356393
C        -2.53180809676737      -0.44400561983096      -0.02986242870225
H        -0.06099203919163      -1.86837867958911      -0.08699765621086
H         1.33209477612202       2.07140160510039       0.42884595006389
H        -1.33969450147613       2.12106758395244       0.33738302661893
H         2.47748377551614      -1.64477159392274       0.07749194864708
H         2.94288536870704      -0.13100359510849      -0.78715655262291
H         3.00717478477808      -0.19697232267991       1.02077759399756
H        -3.11532654094065      -0.11791174799585       0.85651253089746
H        -2.96955435123625       0.00959595627029      -0.94384912174437
H        -2.59306856064237      -1.55017410757563      -0.11316657255638
S         1.99999039570053       2.61437632343371      -2.90812114083582
O         3.19436184318526       2.31633640403909      -1.99003968450764
O         1.20786044470158       3.66923037920244      -2.12161316397062
O         1.13262983262882       1.35428830646507      -2.77659963854340
C         2.42831041041457       3.07309048515918      -4.60929071016362
F         3.08517373276115       2.02125878340561      -5.21780923230146
F         3.25046287815042       4.18281612711959      -4.59549947618703
F         1.27512159936187       3.36297259251023      -5.31213599810700
