48
C12H22F6N2O4S2 optimized with DFTB in AMS.
N        -2.15496024407693       0.18548961758790       0.37855247157726
C        -2.09196124518447      -0.73405827515212      -0.79680323271636
C        -3.38282244301614      -0.26054010871850       1.11620218511445
C        -0.95666474833394       0.04948589359495       1.27108648330563
C        -3.54436392967263      -0.93308087963546      -1.22470557518858
C        -4.38254170379811      -0.65618318304485       0.03477830132711
C        -2.33089407910736       1.59441049030007      -0.06559862326332
C         0.34912562419967       0.52924060075518       0.64934498494282
C         1.46620808348596       0.38788564718813       1.69066394183614
C         2.80751894786657       0.86997747383399       1.13119535126525
C         3.91582847808859       0.74750542566937       2.17510320207454
H        -1.64995934520099      -1.67389070936610      -0.45835893692371
H        -1.46506040009393      -0.29871966532796      -1.57510974828261
H        -3.72732725029766       0.54862025319062       1.75938964457024
H        -3.10619215746952      -1.11442514025522       1.73536809377423
H        -0.88485234614688      -1.00461521189988       1.54887717042429
H        -1.17294607027163       0.62715595840987       2.16922180196111
H        -3.69217250006850      -1.94943215055598      -1.59316617699423
H        -3.80812013020094      -0.23984819496791      -2.02621930100396
H        -5.10034040609983       0.14549986241018      -0.14864244731648
H        -4.93808813484651      -1.54218863738481       0.34590555670302
H        -1.54822004019473       1.85273871491283      -0.77493207330343
H        -3.30312319461592       1.69914622835967      -0.54119774006964
H        -2.27569515545363       2.24073920670977       0.80679360200521
H         0.59065565965251      -0.05432740552300      -0.24498300029848
H         0.26966207124178       1.58118455371616       0.36438852247948
H         1.54960547978986      -0.65954540765530       1.99902179452289
H         1.20247260693693       0.97923761564823       2.57303678777476
H         2.71545039453476       1.91539407412105       0.81830533010255
H         3.06943327740487       0.27758524307872       0.24738609928614
H         3.67878968742732       1.34759189078265       3.05423270645641
H         4.86066421781080       1.09757480989223       1.75908683361314
H         4.03569538161738      -0.29128057041797       2.48567431470689
N        -2.22562605307104       2.08846442814122       4.93155037632981
S        -2.70740573723762       0.55727054787495       4.99087579859675
S        -2.30856905084988       2.79936502583274       3.50659035226887
C        -4.58910943747300       0.57814719139389       4.93924727774633
C        -2.45855096248791       4.56229546390835       4.06348214368633
O        -2.34719756859582      -0.25089854392533       3.83440579639659
O        -2.37866654687899       0.05182062484528       6.29214046237452
O        -3.50538234979249       2.51671070042483       2.72455547441400
O        -1.06348336311518       2.76125079621557       2.75054698799383
F        -5.05609863176632       1.78068028120193       5.22471896323812
F        -5.06714333408478      -0.28883359290825       5.81414831947903
F        -5.01490150862460       0.22852908000148       3.72755641427994
F        -2.53766925821008       5.34044168369558       2.99540847026678
F        -1.40144334668331       4.91274048786434       4.77413434664519
F        -3.54582755663569       4.72231041697689       4.79552543532114
