24
C4H12F6NP optimized with ForceField in AMS.
N        -0.00024685831484       0.00056519429364      -0.00051912854289
C        -0.91179447930205      -1.11372071010020       0.34267667880138
C         0.65540767672684       0.49814822311483       1.22957704412067
C        -0.77374377738246       1.09710790137940      -0.62411731796492
C         1.02790695605041      -0.47777402155861      -0.95152372336942
H        -0.35538745537358      -1.95365484679878       0.81630531083337
H        -1.69914899563478      -0.78047747767584       1.05561735753782
H        -1.41909889340877      -1.50898279286909      -0.56592251574583
H         1.35051302823734       1.33694143183552       1.00089998007830
H        -0.09725568849685       0.86709496843322       1.96208414266695
H         1.24266548856126      -0.30693983525510       1.72369853480112
H        -0.11144699084596       1.95172676529459      -0.88929178663615
H        -1.27556969428677       0.75189908357104      -1.55586081216502
H        -1.55945692950007       1.47539842561452       0.06765852977106
H         1.73128967725890       0.34039666732760      -1.22519538278716
H         1.62329293696708      -1.30729223312956      -0.51290975835497
H         0.56086535635502      -0.85720196231741      -1.88787275686296
P         4.43134964523473      -3.10980332951201       1.80449263580348
F         4.52189275423257      -3.72305816288205       0.20248040167900
F         5.88584770769760      -3.92737564459753       2.21041385626214
F         5.33031727435016      -1.72682155051211       1.32500783400687
F         4.32915924490472      -2.48920977571940       3.40287839706771
F         2.97325804917021      -2.29749655344018       1.40905550488313
F         3.52053106909928      -4.48633329239648       2.27989354711633
