31
C9H14F6NP optimized with DFTB in AMS.
N         1.98726914412425      -0.51872212088631      -0.72419396594633
C        -0.39751150690817      -0.40834963575482      -0.17056681350403
C         0.96824598349179      -0.96371666620308       0.23312480024675
C        -1.47250740998580      -0.86676109202834       0.82027898925138
C        -2.84703372693881      -0.32607527783524       0.43293875035713
C         2.77453177421014       0.52128494090555      -0.41802441118613
C         2.16043741296714      -1.21373000016678      -1.85755406685599
C         3.75790060642144       0.93470339399478      -1.29218861850009
C         3.13025508701152      -0.84065931892482      -2.76457016937668
C         3.94211571374893       0.25027580784944      -2.48587859134790
H        -0.64728217908196      -0.75570091379009      -1.17835687989510
H        -0.35175841841811       0.68547952061708      -0.19328975831977
H         0.97084064347403      -2.05572446483537       0.23209954146373
H         1.26181257962156      -0.61253609890774       1.22372056061055
H        -1.50123567412184      -1.96071854074784       0.84145323275145
H        -1.21094603401349      -0.51828667695316       1.82444089949934
H        -3.59328289036787      -0.66544432974483       1.15083450782844
H        -2.84158613490600       0.76464485954282       0.42562520975345
H        -3.13200068131349      -0.67950866119457      -0.55880225060526
H         2.61637502306690       0.99081094646994       0.54438438753570
H         1.52623149691767      -2.07812979766494      -2.00493112856244
H         4.39381096122352       1.76705075586510      -1.02030886134222
H         3.26590779889240      -1.42427795060474      -3.66583906583072
H         4.72417089129136       0.54516530469542      -3.17446870558705
P         4.30932172383064      -2.64253896555249       0.71126015682865
F         5.61430137868318      -2.23157432380474       1.59094614625671
F         3.47213192448008      -1.32227804039878       1.34297940451888
F         4.81796736092770      -1.65826038727633      -0.53244281007592
F         2.93747327758707      -3.00603507906419      -0.21241564705146
F         5.08223172758369      -3.90825901966812       0.04165377148829
F         3.71904078240051      -3.57076684803281       1.91491197979664
