50
C14H28F3NO3S optimized with DFTB in AMS.
N        -0.17210147084958      -0.03412642120172       0.00866097218759
C        -1.21268933601173       0.18737496675636      -1.04561091627482
C        -0.43310969671508       0.90894667114360       1.14535219479963
C         1.17046286933138       0.29491570103225      -0.61944959536871
C        -0.17269660302252      -1.45643305255426       0.52294918647626
C        -2.62943185869620      -0.00330941816240      -0.51994776089628
C        -1.85032780039287       0.81986218293646       1.70423828160791
C        -2.90243481954842       0.98732372245899       0.60992839488408
C         2.29712497072573       0.62328782900846       0.35781855606665
C        -0.22955619707780      -2.54243288021900      -0.54965504944161
C         3.62599962858405       0.65936444429008      -0.41316869481622
C        -0.10299425065607      -3.91669285177795       0.12388590569939
C         4.80864033031701       0.81169313166682       0.53963319879160
C         0.00168968805557      -5.02505522180334      -0.91973282157876
H        -0.99914943813762      -0.49101931599233      -1.87251345414940
H        -1.09382755898897       1.21529670808800      -1.40022726721100
H        -0.24476577843980       1.91846778184549       0.76950969059260
H         0.28721513028286       0.67966897204014       1.93197058913707
H         1.00894176801025       1.14678842475194      -1.28555973002881
H         1.45063613194609      -0.57198249798485      -1.21916779041978
H        -1.02630046784318      -1.56449712192585       1.19359154476055
H         0.74227163428068      -1.56809408757622       1.10552598392304
H        -2.78128660764738      -1.02763674055556      -0.17214622214791
H        -3.31912203526672       0.17497771724125      -1.34890905039353
H        -1.95489810927308       1.61682141016949       2.44522638605340
H        -2.00015019787417      -0.13072096872240       2.22217289093847
H        -2.86977317033876       2.00892591902740       0.21744103874079
H        -3.89724931553898       0.81385856616784       1.02634327973528
H         2.36015174538300      -0.13674751810725       1.13704159047903
H         2.12857363714245       1.59533503485184       0.83130181896998
H         0.59202577520822      -2.42089413996737      -1.25789594464474
H        -1.17447111783405      -2.49774920233831      -1.09998744139858
H         3.60677409210794       1.48883165006555      -1.12921842580602
H         3.73975083790197      -0.27319838948568      -0.97229210625707
H        -0.97136265066500      -4.08697471028021       0.76981585125238
H         0.79486763471049      -3.93468898824058       0.74528145897510
H         4.89918389128164      -0.07558929913070       1.16583325283249
H         4.68508979875842       1.68745561264356       1.17894211188666
H         5.72806325640290       0.92436468500908      -0.03452502518560
H         0.90956378047596      -4.89615436066792      -1.50960319994838
H        -0.85870017738730      -5.01450166405282      -1.59154583060142
H         0.04684968711560      -5.99349796319454      -0.42240248353092
S         3.54802011920880      -3.07023957071279       0.68711389153933
O         3.25179317815786      -4.47610123405945       0.56884181407919
O         2.60312733365947      -2.20221737804144      -0.02268216899108
O         4.92677282118656      -2.67620443501117       0.55230055101215
C         3.13574887645778      -2.67233596259538       2.46109099998644
F         3.75125599956698      -3.45143144521574       3.33471231519914
F         1.80985782311914      -2.79224010909690       2.66470599753803
F         3.44568119032651      -1.39974744962051       2.74624565834642
