53
C15H29F6N2P optimized with DFTB in AMS.
N         3.15970164828985       0.86805236390506      -1.68612824572472
N         3.08854483726081      -1.28196620138788      -1.74846521342480
C         2.02721770054463       2.98904296328449      -1.13400179688753
C         3.35802144761969       2.23493364192494      -1.20471641830018
C         2.12237730015343      -3.00599999494229      -0.26183290939746
C         3.16191497594545      -2.68436429965764      -1.34150124446042
C         1.03064714183325       2.29282778863779      -0.20461622231474
C         0.70885660617729      -2.55958170991222      -0.64181879965791
C        -0.29459716120966       3.05058309795917      -0.10836506344865
C        -0.25455321184218      -2.76116469031259       0.53205384991251
C         3.47808101321791      -0.23789757056196      -1.01844561347920
C         2.54619975614442       0.52555543052001      -2.86178732931758
C         2.49656827341225      -0.83129082985411      -2.89746834025701
C        -1.25834370499676       2.30791191851959       0.82333281642870
C        -1.63705209386146      -2.18494497624660       0.21394044129223
C        -2.58478801058714       3.05040509359385       0.96860819829374
C        -2.58441789280695      -2.32888192846585       1.40360198590235
H         2.24461105316584       3.99520660702837      -0.76353531131498
H         1.60536743340324       3.08653929916036      -2.13985806176047
H         2.41683700593018      -2.51908857785046       0.66866937662048
H         2.14653779075462      -4.08742046834771      -0.09968831180979
H         4.04891671678679       2.73784429279759      -1.88855028480033
H         3.81417956640649       2.16568221986475      -0.21497368739778
H         4.16935855742751      -2.87302610617187      -0.96090323323807
H         2.99928676843451      -3.28908534208758      -2.23786362482681
H         1.46971982019572       2.20737264852498       0.79185763641610
H         0.84036815988485       1.28052440820854      -0.57347898928350
H         0.36157029771462      -3.11615566058590      -1.52024824563013
H         0.72573632355477      -1.49652805189646      -0.90203741207567
H        -0.11472988273296       4.06043539595608       0.27628703313240
H        -0.74185269927819       3.14644875121899      -1.10484419815890
H         0.15161844673609      -2.25854607578884       1.41471182343502
H        -0.34032743482610      -3.82870474993727       0.76092696499681
H         3.96549731875980      -0.28130845390154      -0.05906957665408
H         2.20184122998374       1.26011745767830      -3.56795011897707
H         2.09911056845016      -1.50316883462948      -3.63772817574612
H        -1.44465053472594       1.30474724156627       0.42432664131467
H        -0.79247192442062       2.19312272598397       1.80693773307590
H        -2.06007477256522      -2.69796843375678      -0.65744320966331
H        -1.53592952504279      -1.12370114398675      -0.04008389073264
H        -2.42320168804485       4.04478343420543       1.38750180437022
H        -3.07331403467655       3.15819483862325      -0.00144892705436
H        -3.25029258421917       2.49837692076617       1.63270527029889
H        -3.56101786997874      -1.91030259492580       1.15829664981710
H        -2.18687810299395      -1.80015920326015       2.27055578053569
H        -2.71222507602008      -3.37999273025042       1.66647138315923
P         2.66518483105152      -0.09232295049377       2.40063443280300
F         1.81538006375908      -1.32583240086639       3.04704715845763
F         1.80733385862818      -0.28373076155186       0.96050764550773
F         1.55508993726505       0.99857731297802       2.89349084449700
F         3.53179826769274       1.12925636238758       1.64559467577301
F         3.53898742663825       0.09857289230534       3.75033437342911
F         3.79142552220659      -1.17838314026874       1.80334972602472
