51
C13H24F6N2O4S2 optimized with ForceField in AMS.
N         1.97561435594398       0.47012589899870       0.07014597921538
C         2.21988587147927      -0.85931128909820       0.68836067179201
C         3.08871075023177       0.66426022850958      -0.90843518593277
C         0.66537615741372       0.50890431620092      -0.64886040623550
C         3.68402173196168      -1.18898330243211       0.48994772902857
C         4.01214289121718      -0.54430485704138      -0.83112506868169
C         2.03881505869405       1.53374343790263       1.10642035281199
C        -0.57126764449739       0.29012518846671       0.25360775908561
C        -1.83643482383813       0.11004467563788      -0.59507780062408
C        -3.07612773243617      -0.07343652955893       0.28825622618752
C        -4.34045434166818      -0.22127804106168      -0.56615840152961
C        -5.57712857465461      -0.41672793814380       0.30608270536838
H         1.62919632430891      -1.65821774806559       0.18241614051663
H         1.95768479379021      -0.89214361630825       1.77062005456864
H         3.68863101469804       1.58022022600408      -0.69649337275036
H         2.73305337265855       0.77708258756638      -1.95877208081001
H         0.65844011880289      -0.26794275370947      -1.44887164091687
H         0.54657833332675       1.49073613916199      -1.16269081493680
H         3.86106215552107      -2.28621498871012       0.47094788655738
H         4.29044871653602      -0.72439123625505       1.29854160710546
H         5.08355116065917      -0.25352180419387      -0.88948215390813
H         3.77548031292217      -1.25098039160658      -1.65804453226103
H         1.30700090746126       1.35626639637800       1.92315312592212
H         3.04447908847103       1.56677722359307       1.58278713189201
H         1.83271306841481       2.53280212501277       0.66157592208687
H        -0.43713296795184      -0.60922069772205       0.89076218595703
H        -0.71455791073892       1.17385056018754       0.91111969313212
H        -1.71774156621488      -0.78351419589055      -1.24734248364850
H        -1.97379842743826       1.00426196498202      -1.24245192938992
H        -3.18664961567535       0.80860596757244       0.95707093792733
H        -2.94761163679329      -0.98163758062278       0.91788747799703
H        -4.47993375709572       0.68986269886989      -1.18819121486142
H        -4.23585029206308      -1.09709055379607      -1.24319133609090
H        -5.71484894204062       0.45402480491056       0.98206517921964
H        -6.47592222264326      -0.51049931016050      -0.33923020732231
H        -5.47822169879797      -1.34151606494492       0.91363301899883
N         8.78308456958829      -3.32892891042491      -0.69968603640349
S        10.28151474373607      -2.74152178929775      -1.01046470417649
S         7.51341886474965      -3.09870543101423      -1.71074251253596
C        10.42742100416029      -1.10021967114077      -0.33330459048551
C         7.36478091245045      -4.49850080524826      -2.80141282110826
O        11.30477318289370      -3.62774140251043      -0.35796949043513
O        10.53099760844532      -2.69172192418085      -2.49254442670761
O         7.70324396977715      -1.84985491435808      -2.52653577490131
O         6.25364327307016      -2.98394764126258      -0.90091068796679
F        11.71711400229885      -0.63797861830792      -0.51380379789855
F        10.13716478055814      -1.12989906285480       1.01739131325974
F         9.54514674111471      -0.25029167468245      -0.97170971835401
F         6.32287130025899      -4.28847350757855      -3.68446907645947
F         7.11355017482278      -5.63763266819480      -2.06060405834729
F         8.53859644491065      -4.66413043897689      -3.51080199045055
