45
C11H24F2N2O4S2 optimized with ForceField in AMS.
N        -1.38671713259555       0.18659194533626      -0.08738311474168
C        -1.65438089615217      -0.99863266627226      -0.95944721847912
C        -2.50349653431292       0.19540855165099       0.90640451202976
C        -0.08375579168144       0.01628462188574       0.63392335146504
C        -3.02478724619561      -1.54929843557911      -0.61184728909310
C        -3.22722860239539      -1.13316986627228       0.81728058700675
C        -1.42120907517022       1.43533822761249      -0.91492748366017
C         1.16727092452331       0.02284719865534      -0.27928858879139
C        -1.13953668083895       2.72919316072600      -0.12994289207639
C         2.41487399516994      -0.37589074446881       0.51936753348207
C         3.67390263154890      -0.35872862993830      -0.35415736420937
C         4.90285513268266      -0.75472041519351       0.46028844298168
H        -1.61199195305684      -0.76253077249346      -2.04779825654810
H        -0.92399269122263      -1.82258788717650      -0.78878958783180
H        -2.16222866401439       0.36920401132096       1.95280510966308
H        -3.25649209017797       0.98726447095500       0.68569289295927
H         0.04514767708316       0.81409998446369       1.39932741466239
H        -0.10120451372119      -0.94149661706270       1.20510073159564
H        -3.79751497743490      -1.07479784227654      -1.25648254346528
H        -3.06965836709101      -2.65483600719370      -0.72368454750288
H        -2.74842955446178      -1.87122809889029       1.49846510015030
H        -4.30661629280899      -1.03594999795966       1.06554717972383
H        -2.41976167645390       1.54088342031556      -1.39866635571801
H        -0.69235850485873       1.37411445817258      -1.75286468197999
H         1.32863783434874       1.03990616653448      -0.69392029908405
H         1.04099904096678      -0.68133528987377      -1.12807010850719
H        -1.77766462730822       2.80843291167271       0.77350092915887
H        -0.07359457186825       2.79059869675362       0.16917972845289
H        -1.35400906156869       3.60290680319004      -0.78053078156114
H         2.27330191088884      -1.39883610908383       0.93322979068051
H         2.54709265455470       0.33308919644312       1.36657384187052
H         3.55655864277931      -1.07226194314796      -1.19896105557174
H         3.83109529090998       0.66004632573004      -0.77143088503700
H         5.80306661468040      -0.73361367639872      -0.18559354698777
H         5.05458869521234      -0.04399988001000       1.30053539000964
H         4.78246078199944      -1.78223370494346       0.86497772654698
N         6.90119728465969      -1.12441766088338      -2.65082386396996
S         7.53897366638756      -2.47598766241652      -3.31675797198129
S         7.68866908063929       0.30912829790849      -2.71056691078302
F         8.88343559993898      -2.95112060009700      -2.43882200714073
F         7.53031844497203       0.96445980551783      -4.24297583749428
O         6.51685363446554      -3.57616315520372      -3.29874385724282
O         7.95688094877049      -2.19720990022997      -4.73309607130741
O         9.14840570495428       0.10837483862376      -2.41421886099192
O         7.09369800675339       1.25305894929674      -1.70530976018160
