46
C12H26F6NP optimized with ADF in AMS.
N         1.70991363391234       0.49547615723614       0.19353709858697
C         2.66174089295423       1.37469308645028      -0.61239160111256
C         2.60427700422359      -0.15902178817783       1.27340045811740
C         0.61950803996106       1.31485830247082       0.83690338618669
C         1.14337366155348      -0.57993880901912      -0.72624560426132
C         4.00670542352603       0.68576684141680      -0.49370239439804
C         4.03697660510190       0.28867151614723       0.98333430406009
C        -0.31098939118029       2.00687804015731      -0.14560658235452
C         0.15480466427973      -1.52045598602882      -0.06536019663450
C        -1.30677472768090       2.91136099688609       0.58527559434012
C        -0.17136172486468      -2.67432273455058      -1.01855217938556
C        -2.26784534468257       3.60201112816746      -0.37820561571972
C        -1.15400415037637      -3.65921738706848      -0.39575340258894
H         2.67598626523445       2.35830283215577      -0.11705220248249
H         2.27434503457199       1.48010243809480      -1.63323621818992
H         2.51243824870041      -1.24294949306590       1.15051320200005
H         2.22814848837321       0.14665561709424       2.25820326321466
H         0.05719057878184       0.63469868916019       1.49284433049594
H         1.13257541101904       2.05353533719113       1.47401921960444
H         0.68239616852332      -0.05219364992117      -1.57360126846535
H         2.01010250904776      -1.14539010242994      -1.09743434608574
H         4.05557945688348      -0.20922855039360      -1.13176921991951
H         4.82809861319918       1.35842651900057      -0.77739711719851
H         4.31707491196771       1.14923234243070       1.61265211490891
H         4.73611575919982      -0.53913784028750       1.16461781302034
H         0.26709413836215       2.61498131867297      -0.86256749006834
H        -0.87073680537403       1.25871005134687      -0.73126752737249
H         0.58702739793045      -1.94836997607749       0.85490002081828
H        -0.77676126293113      -0.99592149130255       0.21398252398011
H        -0.75446089635994       3.67095221999483       1.16755704808932
H        -1.87986320214658       2.31229083238384       1.31595112866679
H        -0.58796690270044      -2.26874715879403      -1.95942752844300
H         0.76542567426511      -3.19486088730144      -1.27632683404706
H        -2.85587897296292       2.86401656956775      -0.94719132062090
H        -1.72108016456120       4.22658541758551      -1.10282257416894
H        -2.97216120011711       4.25048795255893       0.16256395292459
H        -2.10915252698096      -3.17177684524824      -0.13856637461235
H        -0.73202397654619      -4.09337655549650       0.52473906169336
H        -1.36773635750746      -4.48704798152313      -1.08715324330981
P         4.09265772305252      -3.46292327989122      -1.09005571573439
F         5.12497617736493      -3.86197845108805      -2.29129541225371
F         4.62713032761963      -4.68160460168340      -0.14144768340894
F         5.21201482390683      -2.42558422126212      -0.43213529641492
F         3.01080227613573      -2.99790208661017       0.12698848981928
F         3.51379819417957      -2.17632978503077      -2.02343668710642
F         2.91047629784127      -4.41765860881819      -1.72624324356938
