31
C9H20ClN optimized with ADF in AMS.
N        -0.00828809785875       0.22975042024445       0.06691750753703
C        -0.88969777152402       1.21790301415607      -0.69044732061350
C        -0.51777452589169      -1.17401577414184      -0.13544309189236
C         1.39138892723411       0.37951468072445      -0.51803076289910
C        -2.35824326986017       1.08173827662757      -0.33743113299363
C        -1.98429365268109      -1.32959519574326       0.23629308379565
C        -2.86110677978162      -0.34736592924311      -0.53911790302115
C         0.02477525289089       0.60021680347670       1.52296766868466
C         2.46498645287876      -0.47587238945454       0.12858679418044
C         3.80249251613828      -0.19735396310297      -0.55866973696035
H        -0.72708722600153       0.99014546563856      -1.75707428881820
H        -0.45873897886307       2.21804592684625      -0.45469509329404
H         0.12227327975557      -1.84218627372273       0.45678907570679
H        -0.36527205576713      -1.39931487817512      -1.20432082796057
H         1.61852338640582       1.46447486005814      -0.39626091944878
H         1.28865880901746       0.13586183596926      -1.58839931902320
H        -2.90928847457082       1.78806411553146      -0.97986235785816
H        -2.53752479225825       1.41504401535950       0.69857708297588
H        -2.11497020211789      -1.18550320033805       1.32206320003948
H        -2.27118345830449      -2.37266823742305       0.02299675237012
H        -3.91235519459046      -0.44343267550054      -0.22491446969333
H        -2.82010501987640      -0.59818450646478      -1.61549848901403
H         0.59677298907117      -0.16273346520839       2.06293662049595
H         0.49417829953074       1.60854041705939       1.57580088766397
H        -0.99772681474030       0.63447223676995       1.90843164998430
H         2.56037892068628      -0.21860108236018       1.19518991116586
H         2.23309505157317      -1.55293488101260       0.05903034235622
H         3.75778540715068      -0.44429797499925      -1.63080308053817
H         4.06580522986953       0.86633050730744      -0.46241073038899
H         4.60379595464345      -0.79694703218352      -0.10430101447503
Cl        1.17846862544177       3.51930644290472       0.51284664513625
