55
C15H32F6NP optimized with ForceField in AMS.
N        -1.08676383426404       0.82605206166800      -0.17840132657174
C        -1.56888012537978       1.86756484446837       0.78805922744976
C        -2.06429779884777       0.73423791129979      -1.31218544688102
C         0.21426674200116       1.28993692513025      -0.77435510499416
C        -0.93142518530701      -0.48928209560112       0.53730978659823
C        -3.01478560198347       1.64918998402685       1.27929458940687
C        -3.50901570138984       0.44807279743967      -0.87363928933074
C        -3.98889196984224       1.50944997006570       0.11196067879964
C         1.41791064589113       1.36749944555358       0.19893638174630
C        -0.34886270697554      -1.64970701381128      -0.30696845886014
C         2.66541761084822       1.88233371929414      -0.53319030206884
C        -0.22120130122904      -2.92046037628758       0.54295585129892
C         3.88511504483434       1.92190319345159       0.39571797603376
C         0.32924661493830      -4.08923900533079      -0.28254255781519
C         5.12099439171788       2.43540026172051      -0.33982469646219
C         0.47763554359321      -5.34541368580431       0.57250401754779
H        -1.52472026289151       2.88032415863812       0.32522056353015
H        -0.92359381783056       1.90233370753943       1.69225827429761
H        -1.75891324297403      -0.03019320436474      -2.05604544952041
H        -2.08435297180003       1.69469374941005      -1.87803241079528
H         0.08417206930902       2.30222275880529      -1.22332740111729
H         0.50240530980296       0.63863306968150      -1.62995020101278
H        -1.90231227777944      -0.83886336337311       0.93941459059980
H        -0.29645971837476      -0.36082703561153       1.44197678287724
H        -3.31889868151734       2.52356490022876       1.89433157696289
H        -3.07984077645992       0.75960966034586       1.93939353876292
H        -3.60341908846394      -0.56578155845494      -0.43325732490262
H        -4.16546589058892       0.46954956106546      -1.77012663921058
H        -4.08463996480376       2.48693684261405      -0.41087994719548
H        -4.99257607923373       1.22790420872313       0.49823241898810
H         1.19647387669519       2.05760528749831       1.03817281379264
H         1.65278480005458       0.36479755416107       0.61088615193929
H        -1.01325959308953      -1.87598568529532      -1.16479482067825
H         0.65895252828337      -1.39071719471467      -0.69009894018264
H         2.46624684843724       2.90589645346055      -0.92091357311854
H         2.88660824646131       1.21456720007729      -1.39530967625561
H         0.46151171251819      -2.72022977857711       1.39840821199839
H        -1.22136505098062      -3.19713283657655       0.94391559544995
H         4.09554601460879       0.90026797313391       0.78163902438359
H         3.67671087428895       2.58947294653700       1.26020343532307
H         1.32130815866708      -3.81780898490846      -0.70268801647865
H        -0.35819296700994      -4.30836619182660      -1.12843642180586
H         5.98760509290746       2.45304476225828       0.35366129358868
H         5.36555766690385       1.77045047856331      -1.19520294776897
H         4.94660121931047       3.46603562683006      -0.71521963091974
H         0.90900556469698      -6.16458231253731      -0.04025707710515
H         1.15425275811144      -5.15263279205438       1.43222065786464
H        -0.51395185095545      -5.67103767171206       0.95296798179840
P         4.89298237015490      -4.15732251462294       1.59011303071100
F         4.17069520260872      -5.68198443393036       1.91512787595223
F         3.54616684696636      -3.69981026935596       0.63061630128136
F         4.10895401639355      -3.51527204731671       2.97722184869854
F         5.59095241851198      -2.62542419410924       1.24796152443384
F         6.27167206379846      -4.55382204602169       2.53522214816674
F         5.63912743705714      -4.83303629829109       0.19799012856953
