28
C8H12F6NP optimized with ADF in AMS.
N        -0.47566057537182       0.26390977435208      -0.46023111418141
C         0.98009745101156       0.25398201288773      -0.73947222285602
C         1.79029240892171       0.05639538105646       0.53499246203487
C         3.28594271555314       0.05641083186505       0.22958746282195
C        -1.06451447999331       1.41679518811426      -0.08465118715109
C        -1.19927461664032      -0.86016128190087      -0.63078163232583
C        -2.42067308377240       1.46337761827030       0.16885414290384
C        -2.55846287790859      -0.86473702982923      -0.38887534489116
C        -3.18167248085026       0.31027045804209       0.01481866423277
H         1.15153799667058      -0.54190818717261      -1.47571410161825
H         1.19863451286413       1.20390947159782      -1.24771920190064
H         1.49798413627859      -0.89659869743749       1.01113049521832
H         1.55094460297907       0.86063818153399       1.25361134494972
H         3.54959053006084      -0.75260302532761      -0.46934813649865
H         3.86926773994238      -0.08858142691930       1.15095298718558
H         3.59861705482767       1.00918601857039      -0.22451790024031
H        -0.41992490492531       2.29001708996771      -0.03242342041652
H        -0.65767231948124      -1.72799410049591      -0.99691330900870
H        -2.87593153556018       2.41449730229613       0.44163173900943
H        -3.12389327452453      -1.77991848907689      -0.56125174559682
H        -4.26061017775481       0.33601138832835       0.17336401236137
P        -1.17484493461502       1.19777624937100      -3.88269232616065
F         0.13498252650039       1.41301536915437      -4.84509618311402
F        -1.87497469123841       2.56628801050105      -4.44396857502008
F        -1.92147038572274       0.28424618127770      -5.01720028207424
F        -2.44956063715531       0.96127339708353      -2.83302470203127
F        -0.45575874418676      -0.19125205153130      -3.24818402321360
F        -0.40754638410907       2.09845514662118      -2.67380484131860
