36
C8H18F2N2O4S2 optimized with DFTB in AMS.
N         0.92424326540984       0.27231686349260      -0.20991539317333
C         1.71766314572101       0.28030352770518      -1.50273451930341
C         1.50872869544987       1.37162507829099       0.65106835338482
C         2.82237179012635       1.31471298080734      -1.33284280239008
C         2.26561702577116       2.28512557867339      -0.29825343908999
C         1.08124345110122      -1.04343311698871       0.50462256434153
C        -0.51098609495522       0.57553841659421      -0.52926337795968
C         0.47677413606716      -2.23187996846799      -0.22449115051215
C        -1.46294634640180       0.48712754712016       0.65577257794745
H         1.04393502114112       0.54737751244298      -2.31914037241482
H         2.11677732599313      -0.71557847375776      -1.68402056390752
H         2.18955323190624       0.91227867489684       1.36744136714221
H         0.71055194819265       1.87801905555315       1.19096524404509
H         3.04961867673236       1.80155087804197      -2.28151367662674
H         3.72910284944277       0.83705273444664      -0.95294881751221
H         3.05932801093789       2.81177573927246       0.23226582905124
H         1.59360782509745       3.01274806529815      -0.76188942674908
H         2.15394947994817      -1.19932409076041       0.62599308935100
H         0.63331557462761      -0.92826951164720       1.49346537139565
H        -0.52703367432819       1.58565409764286      -0.94675887922291
H        -0.82610563154459      -0.12556051915186      -1.30533140592704
H         0.73678684334166      -3.12466807992939       0.34371442899446
H        -0.60859282849142      -2.17175017014926      -0.29077756256266
H         0.88909633020684      -2.33928065329050      -1.22603862802452
H        -2.43961251886097       0.83668506825367       0.32156855354558
H        -1.57113673953525      -0.53616955992303       1.00955914584122
H        -1.14329081562945       1.11373710308040       1.48625499184385
N         5.41535225155053      -0.31103489995539       0.10389102779160
S         5.23806497264126      -1.84577566606365      -0.27187163816085
S         4.83358931344948       0.15610429457026       1.50441438467504
F         3.64906564233089      -1.85625317894554      -0.79644923141090
F         6.00865748374619      -0.17374590230317       2.54819313772959
O         5.96292961198635      -2.09850405640982      -1.46764101574345
O         5.23338951023439      -2.80049019494296       0.78282252102720
O         3.69133353221746      -0.55672100217647       2.01402194748210
O         4.75388305827586       1.58586347137985       1.48606588020175
