31
C9H20ClN optimized with ForceField in AMS.
N        -0.41373802640982       0.14007856669672      -0.09199306826517
C        -0.98120231976734      -0.96787756005310      -0.92086609485857
C        -1.46366802383256       0.43038192983273       0.93273052516926
C        -2.44464332400747      -1.12823839671851      -0.55508538023679
C        -2.49569433102062      -0.67910471573306       0.87733888475093
C         0.83730161137367      -0.31278085819527       0.59952345224955
C        -0.18680503605811       1.34063436091197      -0.96052353670913
C         2.01769625386810      -0.63815736994252      -0.34537601169968
C         0.39526484451537       2.56323290927126      -0.22976545663987
C         3.17632411725005      -1.26134378612446       0.43049137222763
H        -0.48829639203418      -1.94560265412219      -0.71252996736496
H        -0.88296774729593      -0.79445383995733      -2.01740440514814
H        -2.00415520150102       1.38244557528305       0.72444037762497
H        -1.05935992627031       0.51901392565290       1.96762223849411
H        -2.79235277055028      -2.17804300946800      -0.67016719194685
H        -3.06808959884365      -0.45361804093052      -1.18371578036027
H        -3.50936538986570      -0.32147317964504       1.16160487310014
H        -2.18936755901110      -1.51479762536836       1.54571169809712
H         0.61499621160808      -1.21990437270893       1.20871921174431
H         1.17958711255736       0.45539068632353       1.32798326068335
H         0.48861028524626       1.09297022519681      -1.80857729897519
H        -1.14758178829737       1.65324949848693      -1.43088623187340
H         1.70834441100295      -1.34557133579064      -1.14211057086937
H         2.39263551298354       0.28756405482908      -0.82820790012694
H        -0.21545718445323       2.84511612059064       0.65157186709696
H         1.44089076400835       2.38046657173582       0.08968137375650
H         0.40729082793347       3.42787913101584      -0.92640263127723
H         3.53407807667707      -0.56140528866844       1.21553965018840
H         2.85617327263390      -2.21244146411692       0.90682968152009
H         4.01701895534226      -1.47811137722478      -0.26163085827070
Cl        1.80858000841825       4.42603710184080       2.73365329671897
