36
C10H20F3NO2 optimized with ADF in AMS.
N        -0.00132742332034       0.32949534065632       0.17337234226257
C        -0.92772154077082      -0.38698576768338       1.13846878365684
C        -0.76007633555081       0.92048846898776      -1.00518328441979
C         1.01681092604266      -0.66884652134784      -0.36468999637734
C         0.68912756268189       1.47291452696652       0.92436473843793
C        -1.83448851782104      -1.44875900365955       0.54381329367279
C        -1.90310650634624       1.84440363530400      -0.63809978485716
C         1.99568652126557      -0.10541425682404      -1.37645142103970
C         1.71518282831796       1.04384807314580       1.95245219579618
H        -0.27308581121630      -0.82661109582118       1.90409458676543
H        -1.52296279777919       0.39927381533038       1.62331177328730
H        -0.01305556556601       1.47013124472566      -1.59151625707063
H        -1.11188160340382       0.06493041640779      -1.60178525057492
H         1.53561506212213      -1.06255470579800       0.52080586575868
H         0.42630269535549      -1.48724210967152      -0.80028299390120
H         1.19415942541101       2.11158066009313       0.16651608926824
H        -0.12448027955126       2.03734348568233       1.40026193281668
H        -2.44036170176397      -1.86407013729015       1.36449376040334
H        -2.53017792076686      -1.04052241754398      -0.20223609722378
H        -1.28064287047243      -2.28495496077146       0.09649519846858
H        -2.35187102159247       2.19422839995912      -1.58025321704527
H        -2.69326857832520       1.34968871207553      -0.05495342519939
H        -1.55399183971247       2.73961019940764      -0.10777495296148
H         2.80628849894087      -0.84029937130191      -1.50209664450271
H         1.53004555084541       0.04149335246914      -2.36098947048918
H         2.43744159461900       0.85850310358209      -1.06783498198038
H         2.07758691634459       1.96815555226662       2.42816126024222
H         1.32126981408878       0.38986592616145       2.74562763333148
H         2.59634928430780       0.58125524831907       1.48700997939806
C         2.70590017256503       3.85139850259195      -1.45629344802999
O         2.64920405419713       2.87221605601178      -0.65046027535008
O         3.57734100618444       4.70037829008800      -1.66540334251951
C         1.40334204321426       3.97194096941877      -2.33587248809071
F         0.26647309894457       4.14816496929476      -1.55489435304994
F         1.16288385322970       2.80928057647010      -3.06355183626214
F         1.41170174748091       4.98417730299730      -3.23292251082102
