43
C13H28ClN optimized with ADF in AMS.
N        -0.46800817605507       0.43419643426833      -0.15284275756271
C        -1.42442970713355       0.24701613488024      -1.30763956614105
C        -1.03119252032443       1.49463890520506       0.76761220548736
C         0.87700659742205       0.90516337601301      -0.73456857520045
C        -0.24304667995878      -0.86706638692784       0.62909430797434
C        -2.83343247658640      -0.10219823301231      -0.86117411823782
C        -2.46286507834061       1.23069436153788       1.21374655292350
C        -3.39944758347551       1.00165997153175       0.03017982842159
C         1.78020570551092       1.66437305880706       0.22078053446600
C        -0.16575303489555      -2.12758957669417      -0.21310115891380
C         3.11708623143550       1.93929899947097      -0.47710130059039
C         0.16105582353985      -3.31363622414005       0.70033744525658
C         4.07317622654808       2.70495228923547       0.43225440626085
C         0.26265325516582      -4.61681866922129      -0.08570834661100
H        -0.98299421539208      -0.51296382928637      -1.96546148338963
H        -1.43173578393678       1.20758712257805      -1.84692847060584
H        -0.97455814166864       2.44036196431478       0.20573683945304
H        -0.35077939690994       1.55938068230338       1.62643959706115
H         0.62655106084922       1.52157214846926      -1.61279887294442
H         1.41440793175879      -0.01491623572610      -1.03253927687410
H        -1.04878654277885      -0.93924569469108       1.37165414427111
H         0.74334595735112      -0.75020271027715       1.12220731084268
H        -2.84037121891814      -1.06526218292922      -0.32511417890634
H        -3.44889900196386      -0.23421907866493      -1.76641136756500
H        -2.78094040780478       2.10405101858238       1.80684932394741
H        -2.50106432225192       0.36494153042153       1.89502113444218
H        -3.49242108685836       1.93497009687341      -0.55596403555842
H        -4.40927218428190       0.73931964365536       0.38444494021578
H         1.99858290470103       1.02683848188057       1.09566662479884
H         1.33291457236190       2.62017309619812       0.54591028762085
H         0.66971207276062      -2.03022303973069      -0.92876757389079
H        -1.10606430843500      -2.33010860594773      -0.75593915024388
H         2.94559809604217       2.50596716710585      -1.41220416317663
H         3.55639789129208       0.95820439873729      -0.73101838498503
H        -0.60953227910759      -3.40375582370779       1.48965100290819
H         1.13308751360166      -3.09368109541517       1.17704680796282
H         4.28133534531472       2.11818701385087       1.34103091835227
H         3.65436368678183       3.67900822459678       0.73599037793231
H         5.03298047705968       2.89167355557580      -0.07189297548807
H         1.06229046308624      -4.54228929101092      -0.83963409951919
H        -0.68181172884346      -4.85573225236485      -0.60325352705050
H         0.50752754977625      -5.45922526810690       0.57814739392131
Cl        2.99904638786167      -1.39375353193863       0.37366010893490
