49
C15H31NO2 optimized with ForceField in AMS.
N        -0.69288157102808       0.52761482630268      -0.21251222323901
C        -1.66580249371476       0.28166132886681      -1.32697704301298
C        -1.24407879636732       1.60208378751909       0.67740473593470
C         0.56969011069300       1.03765000686086      -0.85136893314485
C        -0.44219294467805      -0.71628305374395       0.59778768242734
C        -3.08718051845392      -0.06626959148159      -0.85383421369961
C        -2.66784300732428       1.31842127040408       1.19760412232029
C        -3.63228176895201       1.03486005277673       0.05006549718051
C         1.76024949604860       1.28243180295353       0.10890819628270
C         0.22067761922316      -1.89080984112280      -0.16269438835087
C         2.97174129616373       1.82660296537087      -0.65860431498969
C         0.44919335362760      -3.08244817748944       0.77563388934606
C         4.16518679002191       2.03673487982877       0.26924628941268
C         1.10462067699970      -4.24696137996312       0.03885092691442
H        -1.31094172413522      -0.51538704770717      -2.01256874731486
H        -1.75376114444466       1.19247866340243      -1.96465002658200
H        -1.27534501081801       2.57721006932232       0.13830729316741
H        -0.59956842525878       1.75107128698811       1.57011280392159
H         0.36537731415963       1.99809645725038      -1.37949214676596
H         0.90666080837981       0.34398332725659      -1.65229869351268
H        -1.38448612388413      -1.10532623153673       1.02974165641202
H         0.18228061201420      -0.47516259326912       1.48575375998949
H        -3.11080205445791      -1.04588853501491      -0.33395641343340
H        -3.74914594918790      -0.15976522865300      -1.74181098420299
H        -3.02973963808057       2.20863193666406       1.75626429347253
H        -2.66751674259903       0.47190382375298       1.91519654021207
H        -3.78291722256948       1.96299095278186      -0.54438330060722
H        -4.61753731667721       0.72538918141254       0.46043693128297
H         2.06529720185852       0.33693257800573       0.60175431834563
H         1.48575437589181       2.02168659127950       0.88841737570195
H         1.20353051666191      -1.58870960457688      -0.57726965839865
H        -0.43153833674696      -2.23099845394370      -0.99202473083380
H         2.71021151741777       2.79765096984241      -1.13282200067909
H         3.26240686508430       1.11116592316274      -1.45853559631806
H        -0.52315103766270      -3.42425221913346       1.19302125045640
H         1.10592016178259      -2.77636475060437       1.61904283543140
H         4.46890136801450       1.07298774870272       0.73079324935317
H         3.90898496356338       2.76257318263927       1.07016103731317
H         5.02219948697857       2.43685740617813      -0.31220386557466
H         2.09781439584886      -3.94335623018729      -0.35515520146241
H         0.46250487849515      -4.58160876673102      -0.80366690007730
H         1.24456244773761      -5.09730128876511       0.73893146674005
C         0.68317707063747      -2.17769152273543      -4.11064943028564
C         1.82615138571393      -3.05315438327562      -4.51681898514599
O         2.82421587649327      -2.55921171732754      -5.01639755644017
O         1.76621218616258      -4.26084771643967      -4.35108652228195
H         1.02512890822987      -1.45433928088979      -3.34226931206394
H         0.30739322603084      -1.62063604447125      -4.99465680079470
H        -0.14641307799324      -2.78476129316222      -3.68891990500607
