59
C17H36BF4N optimized with ADF in AMS.
N        -0.49851646065776       1.44204417543288      -0.03085596798190
C        -1.30733477058750       2.06506452751175      -1.14767466802360
C        -0.12875235968925       2.52579650940064       0.96043036686615
C        -1.27274064664821       0.32582450869149       0.68251743455026
C         0.78275679495075       0.85974853801307      -0.65112962490697
C        -2.54140511500466       2.79814542985931      -0.64891166482307
C        -1.31603958671129       3.33894322127425       1.46067963588663
C        -2.14504051580024       3.91553840024116       0.31512487638172
C        -2.03580327686658      -0.62125761612967      -0.22830984524811
C         1.91449773577457       0.56571569561793       0.31862513784160
C        -2.52983976172248      -1.83031194043530       0.57989048116070
C         3.01844798195886      -0.22720530733461      -0.39509339199846
C        -2.98369327772749      -2.97790734695831      -0.32301595041271
C         4.11982267380400      -0.66616448950302       0.57086791382554
C        -3.24538431122920      -4.26652863255997       0.45548361470184
C         5.09205101949279      -1.65784071378189      -0.06683657502843
C        -3.66812298116439      -5.42253288490314      -0.44882971222695
C         6.20337805543630      -2.09056587496646       0.88721274328171
H        -0.62840578097677       2.77527626905641      -1.64633246752579
H        -1.54546689975197       1.26193168580031      -1.85704835454280
H         0.39554226761894       2.03025952957029       1.78785161132691
H         0.58785277368953       3.17802510357041       0.43560722512253
H        -0.51812900495139      -0.24423424877147       1.24659861710836
H        -1.95227930764965       0.81608095327671       1.39159945894087
H         0.47561088159638      -0.07375090195966      -1.14381483047021
H         1.09933396759138       1.58847361295814      -1.41503988028056
H        -3.06800460077258       3.20289360023395      -1.52867194545479
H        -3.23716841666043       2.09595346222038      -0.16045418296752
H        -1.95493783189716       2.72578533366904       2.11753718475461
H        -0.90800460608451       4.14249526687765       2.09603891557586
H        -3.03719540906382       4.42878273977934       0.70686740682616
H        -1.55099571748772       4.67340939334732      -0.22843807093296
H        -2.89312887996653      -0.11915510011292      -0.71047776451684
H        -1.36658795997815      -1.00725975457893      -1.01302453664017
H         1.55200071216216      -0.05921517755550       1.15070250136800
H         2.34074442065370       1.49797328069885       0.72807055775951
H        -3.35153801559922      -1.52447155575030       1.25488564507347
H        -1.70319439719568      -2.19498751524356       1.20986911563536
H         3.45183157552326       0.37453258761676      -1.21685142612872
H         2.56458101289737      -1.12911781033701      -0.83756624173685
H        -3.88644016075532      -2.68656607447540      -0.89475483451687
H        -2.17873600260039      -3.17520127269276      -1.05377214325911
H         4.67246207254040       0.21623570824008       0.94839250314523
H         3.64445148188883      -1.15910943426438       1.43732483308568
H        -2.31489679884855      -4.53422686902276       0.98347155542850
H        -4.01989059072017      -4.08881154949181       1.22433764185148
H         4.51268008110359      -2.54284494136233      -0.38044062481436
H         5.53355917553626      -1.21495637683589      -0.97946961369610
H        -3.81281766817230      -6.34907742191695       0.12770364366963
H        -2.89581230508160      -5.62063699370624      -1.20963767930896
H        -4.61134411537434      -5.19922847477267      -0.97504197452013
H         6.81105560285838      -1.22986144111573       1.21279441207974
H         5.77740198699775      -2.56349882308827       1.78692974521870
H         6.87768373425197      -2.82004783450500       0.41294328702339
B         0.89586952526990      -2.96100885586787       0.73312987465823
F         0.52802717128476      -2.33303947849649      -0.51545194536580
F         0.08552305345241      -4.08947657484604       0.94678715880310
F         0.65680725628371      -1.99189165021116       1.78412640987091
F         2.26209426837937      -3.29276141210467       0.70683560980638
