30
C8H15BF4N2 optimized with DFTB in AMS.
H         1.50063132813442      -1.01097678021378      -4.41887703438370
H        -0.13844052350870      -1.41352659534595      -3.83386681077016
H         1.27508426133363      -2.30781596089515      -3.20705051392113
C         0.91333776228679      -1.33958324593483      -3.56279800991621
H         2.62949404836647       1.49066077560128      -0.33964930044106
H         3.14865202132274       0.06861941830758      -2.66032933194658
H        -0.90883961232002      -0.40379071181003      -1.62630658622782
N         1.05942419151743      -0.38029315764854      -2.48228329755059
C         0.11825190157434      -0.08902426756101      -1.58741598605829
N         0.65507639347106       0.72812479707635      -0.68201565999843
C         1.98456445448422       0.90081286828392      -0.96633964917914
C         2.23869999070908       0.20441505536378      -2.10340998467491
C        -0.00429913804979       1.16873727520357       0.54176355074736
H         0.41807040438686       2.13850342393766       0.82127912956631
H        -1.06945937223293       1.29354272006610       0.32622770426026
C         0.21571770869605       0.12866522442000       1.64609541148361
H         1.28999760162112      -0.01630540672460       1.78636473373087
H        -0.20548203190980      -0.82553774211797       1.32020811982730
C        -0.44058597800713       0.57613462380144       2.95271007244808
H        -0.01536540850039       1.53515728650403       3.27101576230044
H        -1.51445468875520       0.72424533933484       2.79197784126500
C        -0.22796654725993      -0.46673902087914       4.04874810761101
H         0.83676317981612      -0.61272634226716       4.23298134740018
H        -0.66223075521483      -1.42196176591544       3.75299383459632
H        -0.70133824401377      -0.13843828016456       4.97421535176184
B         1.31648890688048      -2.65107491305684      -0.22026800111115
F        -0.00458978388660      -2.13186120982093      -0.47493991314095
F         1.83081711952718      -3.10214188971367      -1.44461191215679
F         1.24715375354427      -3.64730061766526       0.71468545744054
F         2.09523172898684      -1.56999583416568       0.23525043323778
