36
C10H19BF4N2 optimized with ForceField in AMS.
N         0.36544773351771      -1.60589138242879       0.32579475088335
N        -1.76040577523458      -0.95737674655890       0.27886010762206
C         1.76449112989257      -1.71784738527887       0.73285839940624
C         2.64835402301878      -0.74511902381530      -0.05966050181897
C        -2.99624279457682      -0.25818823188855       0.62627947240447
C        -0.62143660099050      -0.98221981441383       0.99788017880404
C         2.25422254776356       0.71719607320085       0.19337460315092
C        -0.16815978636330      -1.99439100039972      -0.84947614284629
C        -1.48899388690765      -1.59690414419946      -0.87687866819823
C        -3.21399317104039       0.96216644569594      -0.27882728963883
C         3.20644880672075       1.68105083735309      -0.50709356515638
C        -2.07393822310573       1.97435089949876      -0.16618281136568
H         1.86199369449016      -1.50524328880781       1.82024043830706
H         2.11331561614939      -2.75886355069671       0.56221616414586
H         2.57172704143871      -0.97188134247179      -1.14567494096558
H         3.70543387216743      -0.90140516517840       0.24820422381747
H        -2.96154980217130       0.07163152008701       1.68832069532580
H        -3.85400248148293      -0.95580072983101       0.51804578808849
H        -0.49502823454192      -0.49883941667276       1.95885144213498
H         1.22726699110894       0.89957497468239      -0.18788332286444
H         2.26532836202508       0.92819016800733       1.28500459730764
H         0.37408040068445      -2.49079971102263      -1.64199150101748
H        -2.18650170607476      -1.72559704637976      -1.69406351881318
H        -3.31213519522217       0.63594031444229      -1.33679972275909
H        -4.16503547461823       1.45794716676165       0.01199580054188
H         3.20409173928143       1.49824081820383      -1.60294721186666
H         4.23840537637522       1.55777913092575      -0.11534079139783
H         2.87922893681660       2.72613406233615      -0.32091382330159
H        -1.13460298648868       1.54445801233948      -0.57226588267884
H        -1.91488295475595       2.26586214741886       0.89386720628518
H        -2.32198378976756       2.88340373666031      -0.75308564231370
B         1.36389739899264      -5.32451926215327      -2.70534339327496
F         2.11331108986354      -5.60532592348059      -1.53217797766566
F         1.44188460481664      -6.42970740746467      -3.59372225436413
F         1.89348945194428      -4.16935957749717      -3.33963595235524
F         0.00667109317461      -5.09447875987370      -2.35623815256268
