39
C11H14F6N2O4S2 optimized with ADF in AMS.
N         0.26306117866492      -0.61983219662859      -1.05683243473535
C        -1.76386104904210       0.39311629598561      -0.07117905286765
C        -0.80386762793050      -0.78875834351510      -0.03555417802322
C        -2.94933768581951       0.16432776532605       0.86501347426536
C        -3.99914709281547       1.26307181190470       0.71231216299864
C         1.35884983535488       0.12004854121146      -0.77186695354130
C         0.05605288753454      -1.10855446054352      -2.29698314570756
C         2.29339612590192       0.38664619882781      -1.75122956484287
C         0.94722514225899      -0.83817363544610      -3.32031722483215
C         2.08212452253699      -0.08473895745371      -3.04728650477571
H        -2.13981055916013       0.51548515923189      -1.09834845524729
H        -1.22751163165206       1.32123773943930       0.19699190608285
H        -1.33033547837232      -1.72173132103063      -0.28302407701633
H        -0.30821053849674      -0.91015878731695       0.94015812500064
H        -3.40791393163361      -0.81062940247763       0.62059956571848
H        -2.60233660472730       0.10408187042020       1.91337802134490
H        -4.85723763207427       1.07905588333454       1.37572175783324
H        -3.57999102196159       2.25070545496378       0.96019434220303
H        -4.35891814263900       1.30466143523462      -0.32641245152580
H         1.44246711091127       0.48287205149789       0.25082496180027
H        -0.85552967154851      -1.68300125040195      -2.44883887179854
H         3.17337338991272       0.97750078573436      -1.49766297322690
H         0.70231396477192      -1.21119641772998      -4.31564323676782
H         2.79793817185810       0.14263918417659      -3.83869396160434
N        -2.10943743264320       0.58325134148429      -4.57120633140924
S        -2.63030479220335       1.98640668512917      -3.95036406536256
S        -2.64024728658448      -0.85664683271266      -4.14862826130360
C        -0.95636135110524       2.74845798095378      -3.52404936821474
C        -4.21846684089729      -1.12381418099351      -5.14339374756315
O        -3.13472700069559       2.85498833273546      -5.00078997894961
O        -3.31943410356811       1.90429788979008      -2.66606583261836
O        -3.06342059748142      -1.03175817341168      -2.75287077519115
O        -1.70603002833631      -1.84569106498996      -4.69532264062033
F        -1.15124238021289       4.02611319302314      -3.12606459784702
F        -0.09967064685314       2.74690044639055      -4.57034511890839
F        -0.35120718317985       2.08267470549464      -2.49142670011814
F        -5.13926156735709      -0.18699673657341      -4.82562234073647
F        -4.72076308844632      -2.34760443729075      -4.84974466011029
F        -3.96851263456884      -1.06447156567379      -6.46785103858154
