55
C15H20F18NP optimized with ForceField in AMS.
C         2.75058615220930       0.30700378865520       1.51308482944043
C         1.72601468071393       1.26387386633702       0.92617539499071
H         1.35983879542954      -0.88300500116626      -0.94580955523132
H         0.42473149014917      -1.69229122813578       0.35629920368007
H         3.22191992353300      -1.40192629745147       0.25274504381583
H         2.26054516648472      -1.79166544569349       1.73617747659663
H         2.65310097180230       0.27848488636249       2.62061214496523
H         3.78588522381355       0.61476881649738       1.24792835819191
H         1.46994069635285       2.06967542536468       1.65222837262185
H         2.20073763532538       1.75732816963053       0.04672901447463
H        -1.17302228703077      -0.41427820245141       1.48573223710823
C        -0.36728814414308       0.32392299718561       1.68641521746791
H         0.17887842307305      -0.04099836337005       2.58439370089674
H        -0.83831825811334       1.29851084858374       1.94443942004435
C        -0.13556754667507       1.16165887115656      -0.62383069329420
H        -0.27315625205869       2.23681624794858      -0.36306636525713
H         0.51649690368139       1.15770846502006      -1.52652408474516
H        -2.24962048697061       0.68231310033035      -0.18353622685375
H        -2.83612959722038      -2.07520744860310      -2.79064996055673
C        -1.53566248032612      -0.75960500096607      -1.66056462895859
H        -0.70419870909461      -0.85280963038093      -2.39137899772545
H        -1.41373827278307      -1.52572610936783      -0.87051618028787
C        -2.85280736808663      -1.04449390670047      -2.37779223629738
H        -2.99986823944579      -0.33046725398171      -3.21595420255099
N         0.54226920389105       0.46814824402046       0.51924541311374
C         1.11342768438658      -0.84725040608752       0.13979575578345
C         2.40873411669200      -1.04679247233399       0.92339009758535
H        -3.70388680205802      -0.95946604814548      -1.66863048181654
C        -1.53699895220805       0.64125005859750      -1.03328936304727
H        -1.92786018383894       1.35723639049835      -1.79007758298360
P         2.99769626699740       3.09194015926807      -5.62086819781851
F         2.77174706434248       2.25102792397821      -7.10954018096854
F         1.78154932253722       4.30416826756588      -5.47654148896913
F         4.06233209597581       1.74103078865321      -5.66062275824487
C         1.39717618352299       2.10784164391287      -5.16106529249563
C         3.68157684310630       4.29373492586381      -6.97572251032889
C         4.09690140021373       3.52102376882179      -4.10435472038822
C         1.56445375938373       0.58087442355348      -5.00110018817159
C         4.11077719795126       5.71207539257966      -6.52147137664642
C         4.04932528615686       2.56956808426869      -2.89506877239252
F         0.44729543572755       2.30238990447706      -6.15724027499150
F         0.84781925757704       2.59785065308659      -3.98665909463680
F         2.71363395520580       4.48212788201593      -7.95772283543645
F         4.78589359475720       3.70512508616026      -7.57354592353142
F         3.73347696078116       4.77597463331659      -3.64953495651086
F         5.42063106028812       3.57551880807730      -4.50886108828713
F         0.32217536889039       0.01684367213251      -4.77172086499003
F         2.37231122964256       0.27186905527743      -3.92888638596711
F         2.08849973200103       0.00444953355485      -6.14357006623563
F         4.35657952439835       6.48012050035516      -7.64640167899398
F         3.12543087460136       6.34621183608072      -5.78898299280897
F         5.27791060955095       5.68290231975143      -5.78649995420302
F         2.76529312812891       2.41758533264607      -2.42263057580981
F         4.80825562655723       3.11271085112858      -1.87332645276073
F         4.59074618851993       1.33577315572086      -3.20517250018329
