42
C10H22F2N2O4S2 optimized with ADF in AMS.
N         0.78021434374190      -0.03074952572187       0.10454956435457
C         0.33768247878449       1.42682063559239       0.06990502785615
C        -0.37722046467376      -0.92128459268951      -0.29545470872140
C         1.91032315249688      -0.17524290374457      -0.91459574199542
C        -0.91088965955219       1.68880002945065       0.89371957826841
C        -1.63464347724798      -0.68194685532059       0.52627550103845
C        -2.06505348897744       0.78311665197023       0.46868970422415
C         1.27259096972343      -0.37205888685841       1.47924926634812
C         2.58260307781136      -1.53367472103565      -0.99296083401932
C         3.67805098187553      -1.49135084533860      -2.06971736872561
C         4.54478477184261      -2.74678702570366      -2.04407970799539
H         0.16058054836719       1.65671929915614      -0.99253418550364
H         1.19291262051183       2.02201656074965       0.41676609422120
H        -0.02643006586477      -1.95881617577469      -0.21382933972312
H        -0.56753354142020      -0.69952661604216      -1.35826567964817
H         2.66051148772937       0.58473715341846      -0.65350972820190
H         1.46354271436470       0.10241069206422      -1.88252857556210
H        -1.16794493732936       2.75198925897897       0.75218371957960
H        -0.69770092567217       1.57266450948153       1.96952774345086
H        -1.48259653538005      -1.00064802070130       1.57138591504506
H        -2.41977888436258      -1.34075093013213       0.11747140960123
H        -2.94739545735722       0.95043896435427       1.10723950609534
H        -2.36491878479861       1.03380055948962      -0.56614467690319
H         0.45923209236629      -0.22751485257877       2.19580310525560
H         1.59544765250054      -1.41826097504401       1.48964238459204
H         2.11329437850733       0.28971642736461       1.72187299689937
H         1.86502218408368      -2.33624897183806      -1.23795690910308
H         3.06377500767232      -1.77589011060347      -0.03284616673557
H         4.31612201383262      -0.60883438237429      -1.89511197310838
H         3.21015916873603      -1.36657854164413      -3.06333027380606
H         3.94130288257261      -3.65962867773030      -2.17698607666902
H         5.08443477003375      -2.81607876691615      -1.08752557024578
H         5.29770604678839      -2.71637848199203      -2.84616953118409
N         4.70213949073462       1.42204057449230      -0.04510038960345
S         3.91751729227804       2.68482531411406       0.55795205889395
S         5.56643371123189       0.43833330129804       0.89611729400592
F         5.08866459041540       3.72766066382425       1.01462098416327
F         4.36143499314353      -0.48678798097098       1.63933476885380
O         3.23183785860243       3.33076912041159      -0.54840651466240
O         3.16017179119804       2.42208806749314       1.78047709179336
O         6.25391909417440       1.05385690642549       2.01040425103367
O         6.21530227071516      -0.52469320687426       0.03006126624297
