42
C10H22F2N2O4S2 optimized with ADF in AMS.
N        -0.40195078992846      -0.32866499060308       0.19132454266381
C        -1.21920484627495      -0.25671434144037      -1.07814963509025
C        -1.43360063979922       0.00331718465546       1.25590695390390
C        -2.56101993450771      -0.90040128712130      -0.72700755934548
C        -2.70424103538656      -0.72017291332526       0.80750998803533
C         0.72098214938263       0.68361250746059       0.16473537457834
C         0.11198814189544      -1.74163873835820       0.43104640085411
C         1.55756217536314       0.72160288421305       1.42964173259790
C         1.17651494979183      -2.22250198518987      -0.53791535654356
C         2.56046041194032       1.87123621826990       1.36758938722835
C         1.39470235133871      -3.72259856967163      -0.32692751388021
H        -1.33239162783698       0.81358406590029      -1.30800068722169
H        -0.67009278326876      -0.74072539402914      -1.89476960532735
H        -1.05584767552951      -0.31576131370377       2.23537768273379
H        -1.55415379573973       1.09738857610202       1.23008324555178
H        -3.37220068897057      -0.41329598983260      -1.28676790250613
H        -2.57173101361856      -1.96481108088348      -1.00302420811846
H        -2.79408184376778      -1.69048421812354       1.31656742857201
H        -3.59066406542835      -0.13054211506871       1.07905063787150
H         1.33822855530820       0.44285052164209      -0.71508352863580
H         0.23438919791794       1.65649474764331      -0.01811782096918
H         0.49392749890763      -1.75774218869608       1.45793469242230
H        -0.77198182932676      -2.39336529219000       0.39515686972527
H         0.91409386431093       0.83757855072145       2.31591120586815
H         2.09514181321990      -0.22745622954317       1.56475710107818
H         2.12386744614763      -1.69392762348850      -0.34578973521907
H         0.88865285868523      -2.03540432099209      -1.58737383608607
H         3.23137103774563       1.77459328344251       0.49910014752924
H         2.05502848995668       2.84827685749328       1.30388238300025
H         3.18205376249821       1.86573746313810       2.27322537711789
H         1.67188168327718      -3.92182827543287       0.71793593319653
H         0.48102261538296      -4.29137541184802      -0.56181944209382
H         2.20362312380650      -4.08876867374827      -0.97412057103859
N         1.89881852372947      -2.78558735930416       4.66514935111420
S         0.36156740783242      -2.53131435442902       4.32653752763571
S         3.04854272898070      -2.19245715835168       3.71293878249152
F         0.06318975851194      -3.59693663397628       3.06526092779723
F         3.04122361947330      -0.57232043547084       4.08566183571059
O        -0.46231130673240      -3.02882818387796       5.40325664757514
O         0.05404256427611      -1.23661393826491       3.71312927923884
O         2.74204633374263      -2.19912564612534       2.28330852479573
O         4.33026528639304      -2.66625466509189       4.17826018188807
