31
C11H14F3NO2 optimized with ADF in AMS.
N         0.44118883740343      -0.09966515089949      -0.02296940118774
C        -1.97867066443698       0.04086616183840       0.49615380334331
C        -0.55564069343280      -0.02251885794136       1.04262927618368
C        -3.03534687609103       0.13173229531695       1.59462637099403
C        -4.45332333576459       0.16993559926847       1.02899174476848
C         1.01424018012922       1.03730472193475      -0.53385530137465
C         0.78066802223338      -1.31151847890459      -0.57387196534899
C         1.83827384207159       1.01067960957430      -1.60899744269065
C         1.59659192471851      -1.41310025525105      -1.65019650028751
C         2.03613313138255      -0.22012084581444      -2.37621585489425
H        -2.15864810725670      -0.85350372646769      -0.12757114286902
H        -2.05895058904850       0.91057110973863      -0.18057090570795
H        -0.42279102718965      -0.90208646639447       1.69545665960094
H        -0.32715656691686       0.86844476199686       1.65082021441409
H        -2.93225106005123      -0.73115832926934       2.27850441035588
H        -2.85536858955096       1.03554055037625       2.20618904261023
H        -5.20090612025949       0.24509562770726       1.83318973632458
H        -4.58678059856427       1.03414357991950       0.35855898934107
H        -4.67012665785933      -0.74079068012131       0.44774980144203
H         0.79993740915667       1.95293152859796       0.01722454774335
H         0.38728131693222      -2.18360637089330      -0.05196343644080
H         2.32728390248020       1.93026496982300      -1.92787757575106
H         1.89564522895550      -2.39581953467131      -2.01264709892123
H         3.01757608352285      -0.32044138017958      -2.85328412243859
C         1.44363908589373      -0.86191311935569      -4.69106625709073
O         1.09057405979138      -0.05301003269117      -3.71207829003785
O         2.32476008709023      -1.70207952524379      -4.70959230124773
C         0.56740936018864      -0.60761884136021      -5.95260309628612
F         0.85259928519649       0.61653505481630      -6.48583646333615
F        -0.76281610078409      -0.63540140533692      -5.65993242791769
F         0.80726708415990      -1.54108446241288      -6.89880524249296
