28
C8H14F3NO2 optimized with ForceField in AMS.
N         0.57211026906813      -0.00276528336601      -0.00342895807490
C        -0.31068692009097       1.07805272290785      -0.52217983672738
C        -0.32788580842787      -1.06474508829499       0.52395261611427
C        -1.73225803566581       0.76097013918838      -0.09399019259370
C        -1.74090159803605      -0.73584688281790       0.07986425142637
C         1.44574531540129       0.51609279422467       1.07589434201315
C         1.42257701650207      -0.54141597652641      -1.09111568058879
H        -0.29593252543652       1.13134526844456      -1.63612483544260
H        -0.02345583043999       2.09065476107529      -0.15563080045932
H        -0.32333887689323      -1.09938633122819       1.63878390093030
H        -0.05019038993685      -2.08652646542113       0.17575676560119
H        -2.47503649358880       1.08783139771591      -0.85375991968676
H        -1.95023903465769       1.25314859169574       0.87976155164718
H        -2.49476332675414      -1.05580242850066       0.83173191397117
H        -1.95233348184537      -1.22674167811223      -0.89593255266976
H         2.13776509447296       1.29682265600594       0.68762686296174
H         0.84107861609410       0.97278799164925       1.89177842169639
H         2.05907358069182      -0.30153795645582       1.51683597337220
H         0.80050767851116      -0.95692395692502      -1.91550853272137
H         2.07349289991425       0.25502089963241      -1.51727304997771
H         2.07503865554808      -1.36006673407994      -0.71470631696224
C         5.09023472597161      -1.02378328087096      -3.24656841870571
O         3.91085437923712      -1.28966965596824      -3.41701551305956
O         5.80992176738261      -0.83021261999213      -4.21327977866661
C         5.65950278565417      -0.93375393237629      -1.86128130135848
F         6.67570285940789      -1.86062097303849      -1.71821137318273
F         4.68345447387248      -1.18831735334813      -0.91432912170517
F         6.16779520364358       0.33518779898253      -1.65268924155117
