40
C10H15F6N3O4S2 optimized with DFTB in AMS.
H         0.30401726618194       1.75135030898008      -3.51244677571763
H        -0.22196948886233       3.06858275219911      -2.42686743622053
H        -1.28581883654267       1.66405352667640      -2.70983283526154
C        -0.25095925244298       1.99387752143025      -2.60820153696199
H         2.08357171218567      -0.92092203534339       0.13649790564920
H         1.26202287933550      -0.37347666544725      -2.45311751246225
H        -0.17454647425815       2.65099257238368       0.13234712532748
N         0.36401854327092       1.31320164383351      -1.47862087349494
C         0.31299929917277       1.74250844030945      -0.21947165034527
N         1.00429483758660       0.88851010540935       0.53016920640832
C         1.49117576102180      -0.11478373402760      -0.25956665507258
C         1.08937908142657       0.15409041748035      -1.53140453392914
C         1.18359115363036       1.02845751638988       1.97374980090500
H         2.02415435714055       0.39760010006135       2.27203580592150
H         1.42515008340617       2.07583203990414       2.17461818107903
C        -0.10192205058160       0.63244510511654       2.70425543343464
H        -0.28787759062691      -0.43780352811283       2.56906682200036
H        -0.93913635863229       1.18104767398769       2.26460268254816
C         0.00460235848021       0.97877340678681       4.19278837207629
H         0.77670353573402       0.35868882465435       4.66054691795995
H         0.30299343951430       2.02649232479278       4.29351612085282
C        -1.33406658578418       0.76934827175652       4.89613774637139
H        -1.66792710612275      -0.26442202823639       4.79353491256763
H        -2.08902965412135       1.42700872305081       4.46466235618907
H        -1.23493118412273       1.00097263820478       5.95645119847022
N        -0.75483916137401       4.37262246275016       0.65836882405720
S        -0.73877990550088       4.32953050633266       2.26770101038616
S         0.23099092195743       5.38555305478963      -0.10761967907401
C        -1.31009567208668       5.96930641650429       2.97612624300143
C         2.02043039062938       5.01622211307826       0.33762692935779
O        -1.76393570254593       3.38281162369866       2.63844796387763
O         0.58580279575942       4.11036391024159       2.81776873328661
O         0.03973124158717       6.77181631041479       0.21953168476358
O         0.16848856819593       4.98110887908797      -1.49621405822479
F        -1.80968672678469       5.74116360519463       4.17923282731814
F        -2.24815961472929       6.49141758229199       2.21017384586865
F        -0.29889510804773       6.80516594332192       3.07945025348729
F         2.78833276335098       5.38774466050328      -0.67348678214089
F         2.16859806454837       3.69340097366854       0.49682735031590
F         2.41655628955109       5.62949042228131       1.42866220172421
