44
C12H24F3NO3S optimized with ForceField in AMS.
N        -0.55721588015495       0.09173970908898      -0.09931466410478
C        -1.55394397990376       0.53822198694692      -1.12684742268527
C        -0.89855540976231      -1.30487347965729       0.32833333017059
C         0.78053240041283       0.07216781566633      -0.78630967477844
C        -0.54847952510111       0.99653524042080       1.10313870547948
C        -3.01702058939536       0.44439049040858      -0.66476172899822
C        -2.35493014390607      -1.47841310658170       0.80705210532320
C        -3.35002617033554      -0.98090968931054      -0.23707294522356
C         1.99403784143960      -0.29584882481452       0.10263709312277
C        -0.13846071964614       2.45643128244649       0.83827460101181
C         3.28085645775886      -0.32167308912497      -0.73220602765785
C         4.49026310072130      -0.68732725251130       0.12186731821101
H        -1.46594817723953      -0.09166367926746      -2.04331761835445
H        -1.35185241133154       1.57492353146085      -1.46789634318327
H        -0.24512351843036      -1.63664253665486       1.16364239715033
H        -0.73559417237289      -2.02054909026046      -0.51033918532296
H         0.98642678440082       1.05699046747441      -1.26210260428536
H         0.75869703489794      -0.65315175336147      -1.63294021427880
H        -1.54379916596602       1.03424798375579       1.58615813086651
H         0.12143081801790       0.59054435681484       1.89156174484027
H        -3.67961463448280       0.72669991130667      -1.51153036215985
H        -3.22636372045231       1.15873776553976       0.15771168914348
H        -2.52043185982934      -0.95525403209670       1.77174539845112
H        -2.54507290941075      -2.55770633746702       0.99359332996659
H        -4.37757146562123      -1.01046298769684       0.18519394889608
H        -3.32310481053856      -1.65155952995044      -1.12427343335260
H         1.85592929119116      -1.29814308860151       0.55663667903507
H         2.12630082639046       0.45176667047524       0.91141628249512
H        -0.14924643207065       3.00913121167391       1.80156957478273
H         0.88874382480267       2.53391565005623       0.43123709711858
H        -0.85575080566026       2.96737434376702       0.16615379283760
H         3.45342492108119       0.67845188172884      -1.18633262579217
H         3.18381745613152      -1.06772911781606      -1.55114972692626
H         4.36855258337847      -1.70654613056783       0.54696545930557
H         4.61910868587016       0.04387325859068       0.94769039322908
H         5.40200281514340      -0.66907525875826      -0.50941160228017
S         9.15826163929972      -1.17766010784796       0.08365252544410
O         9.82557855103188      -1.77119764991191       1.33331756490898
O        10.35030125484595      -0.65686791811800      -0.73314890326377
O         8.50886129481027       0.10978332512917       0.61314123963733
C         8.04311870909118      -2.30205077400610      -0.80542193481055
F         7.03114156597870      -2.71281533664997       0.04070967844526
F         8.75021912970264      -3.40593505191226      -1.24106977076509
F         7.49865814841289      -1.64754062770607      -1.89403282124927
