38
C12H18F3NO3S optimized with DFTB in AMS.
N         0.99825062444092       0.60020466827251      -0.96225820432248
C        -2.51636310547139      -0.73068775428206      -0.75070959423243
C        -1.12937865159563      -0.38126949029400      -0.20549169203665
C        -3.53153238620446      -0.82591195843272       0.39195810132181
C        -0.10407543557868      -0.29581945597256      -1.34495736890242
C        -4.94681180038117      -1.06422373673890      -0.14276933820395
C        -5.94777039436814      -1.23892312525317       0.99830642076728
C         1.72477896767422       0.31094106985796       0.13304392715596
C         1.19728117249346       1.73598308394104      -1.64179280735338
C         2.68718992222029       1.18421207947575       0.58459242712738
C         2.14826369862312       2.64855500629160      -1.22300250271469
C         2.90080753808632       2.38135125073058      -0.09300300334590
H        -2.47581806610562      -1.67971501821920      -1.29643229450174
H        -2.82429368750231       0.05368301455479      -1.44854892371904
H        -1.18203556780641       0.58932073094723       0.29084520944756
H        -0.80737090972216      -1.12617502770579       0.52890637838610
H        -3.24846385759277      -1.64335161156731       1.06514889930702
H        -3.51322336266926       0.10466704862087       0.96824651035148
H        -0.56716441031045       0.12328127427161      -2.23945427641624
H         0.31734032261144      -1.27740199195615      -1.57945537885625
H        -5.24670420397763      -0.21288644367896      -0.76227800916061
H        -4.95450052444789      -1.95947857305248      -0.77435090396383
H        -5.95804746255360      -0.35370694516775       1.63543309885976
H        -6.95000492330949      -1.38999177157186       0.59664266249975
H        -5.68451618990589      -2.10355170237856       1.60980855312614
H         1.50738139349805      -0.62384025099991       0.63477137637358
H         0.56354707859593       1.92360485424913      -2.49870550247039
H         3.25302719704177       0.93633619323599       1.47357615465354
H         2.24733748949932       3.57882787749776      -1.76635282461219
H         3.63490969409208       3.09168050884947       0.26680917456099
S        -1.45497865127054       3.54075554023947      -1.19029070136263
O        -1.56574469859770       2.15976095271110      -1.65917098972870
O        -2.60989022046700       4.36338644406093      -1.41205925868555
O        -0.16697232516832       4.14383056367314      -1.49408139946710
C        -1.36794929122417       3.30387027356211       0.65391452315115
F        -0.23226524632591       2.63708960539728       0.95547794235378
F        -2.37932385035598       2.56220579071131       1.10298371061225
F        -1.35119017216434       4.44308579911977       1.32673317900064
