41
C11H21F6N2P optimized with ForceField in AMS.
N        -1.12057054938689      -1.73505134847149       0.22007672330318
N         1.10189232799113      -1.71376999001064       0.29866827531320
C        -2.51468476133511      -1.46246607878478       0.56401005485457
C         2.46198527804280      -1.40538204754880       0.73725671250767
C        -3.01463991350555      -0.18638343465670      -0.12780125779503
C         3.04034360374511      -0.21911206814320      -0.04816223907358
C        -0.03705658064390      -1.45113001503571       0.96876080664013
C        -0.65275472528718      -2.20032059513585      -0.95534672372537
C         0.72687955870806      -2.19002072623590      -0.90554774285435
C        -2.23824232675044       1.05555774396457       0.33429654963765
C         2.19137405244996       1.04855835226198       0.12880445075264
C        -2.80677293770234       2.33121858272682      -0.27721813875797
C         2.81382007422055       2.24457254715456      -0.58120115019112
H        -3.14461530841191      -2.32295343945849       0.25075589445102
H        -2.62114646410451      -1.35442107567987       1.66591104719844
H         2.46660575566962      -1.16443670591988       1.82338130889918
H         3.10675593070167      -2.29810297021454       0.58867819010880
H        -4.09228754368783      -0.05654162876005       0.11235425306589
H        -2.91992745949237      -0.30049826336949      -1.23015753054107
H         3.10123009033778      -0.48277509182464      -1.12689958909991
H         4.07316622687652      -0.02644450161646       0.31540132721641
H        -0.07659610665662      -0.99716167511350       1.95171504047897
H        -1.26831464030352      -2.49360400735284      -1.79596293371747
H         1.40567631953531      -2.47233548058375      -1.70004812783612
H        -2.27961208886771       1.13773492867806       1.44249374401565
H        -1.17579964517567       0.96789368869370       0.02827579941100
H         1.18010225762624       0.88314698126968      -0.29684685938510
H         2.08580712886583       1.28498514569994       1.21013864217966
H        -3.85980921083569       2.47809557920413       0.04455488236720
H        -2.76257212408245       2.28071569970374      -1.38615542408738
H        -2.20690717176789       3.20235335416375       0.06235549370771
H         2.87751562901455       2.05164915702239      -1.67301524883663
H         3.82890582936671       2.44833258328893      -0.17879630029407
H         2.17989938835386       3.14194240773475      -0.41886342590900
P         6.09289715580968       2.67203324249763      -3.27517909716957
F         4.88720717055421       3.03901780465433      -4.44270450129384
F         6.91074630178153       1.66296552981381      -4.39919611062640
F         7.08515331427338       3.95950753516246      -3.83091958081459
F         7.23515453045446       2.32556069289827      -2.03986442570786
F         5.28238716026502       3.73083261419507      -2.19227217528370
F         5.18435972035364       1.30868215232803      -2.75933433200886
