49
C15H14F18NP optimized with ADF in AMS.
N         0.71013048670835      -0.00098684752303      -0.15363582399992
C        -1.66729914185364       0.68157047823626      -0.23590009740430
C        -0.58300411094995      -0.01376042980376       0.57647216859122
C        -3.00709114558567       0.66830985653926       0.49762531108362
C        -4.08984016288882       1.39860718211453      -0.29404311107969
C         1.55222304552401       1.04086627635568       0.00198457408403
C         0.96747039864566      -0.97137071259000      -1.05944868034699
C         2.69935529870653       1.13898209563344      -0.76035600851110
C         2.11169247118614      -0.92913367067661      -1.82517345791994
C         2.98761570433341       0.14436258595606      -1.68488989702308
H        -1.75891280128875       0.19287533738722      -1.22064629802313
H        -1.35432070339135       1.71672388711027      -0.44352892379673
H        -0.82872955609059      -1.06764306517744       0.77939076270539
H        -0.41234107851720       0.48558149245093       1.54225623421714
H        -3.31910408797465      -0.37595578718399       0.68448077498539
H        -2.88899875216907       1.14342628872802       1.48919686825707
H        -5.04652575904878       1.38569951846216       0.24798763621706
H        -3.80503771293194       2.44688294995313      -0.47110213990885
H        -4.24233398356748       0.93096813921136      -1.27854664037962
H         1.25624299510048       1.79462722508972       0.72751028375862
H         0.21589796209315      -1.75227010810508      -1.15269773884155
H         3.33718748530256       2.01445331674903      -0.64601707639931
H         2.28961391996916      -1.71342734190672      -2.55851430129541
H         3.87353720612573       0.21868577023658      -2.31584430777398
P         0.17704096969679       2.65714542725528      -3.82681162854309
F         1.79346154843100       2.81964759162347      -3.40151560188858
F         0.11750282118756       1.26572294307616      -2.85858368699027
F         0.17737030592497       4.01519193376845      -4.78486237790542
C        -0.13062255984175       3.84940388894085      -2.25055945550200
C         0.84810761494514       1.69063888198740      -5.43589701590965
C        -1.76005973613470       2.26698721175729      -4.19201773757496
C         0.44057047542239       5.30863089144957      -2.31714133759183
C         1.30251958461538       0.20680970168375      -5.34705253523913
C        -2.62366356412266       3.28713916373142      -4.98644915504733
F         0.48438996124716       3.28355915384989      -1.12991450215426
F        -1.44321763493868       4.04277654675067      -1.88333653947146
F         1.97465921479554       2.35131115003703      -5.88361637076586
F        -0.05181962979385       1.74337787086048      -6.47224129768131
F        -2.43567511377654       2.06522127780196      -3.00155658920211
F        -1.87678449995314       1.06784923285797      -4.86316439012667
F         0.37279320499181       5.85026782200333      -1.05900698492274
F        -0.30596040422131       6.08479632939442      -3.13024826642905
F         1.72888293694212       5.36933935019556      -2.70929601999619
F         2.39495153744891       0.08487046156796      -4.53590275053058
F         0.34386526763186      -0.62821582181828      -4.87731128630524
F         1.66850068315953      -0.24142663536690      -6.57604299818906
F        -2.62822640840838       4.50040512023248      -4.38676278631426
F        -3.91537259403891       2.84341847027099      -5.03269388894888
F        -2.19267173934753       3.42921086064182      -6.25575335946597
