32
C10H16BF4N optimized with ADF in AMS.
N         1.45652607412338      -0.01945257154637      -0.82267730360189
C        -0.89220300485699       0.21621470537800      -0.08667938377732
C        -2.32906203497172       0.30581926066877      -0.59458178429182
C         0.10009668326196       0.43984399861988      -1.22429040978101
C        -3.34330507222109       0.08629271408340       0.52653907230833
C        -4.78089833000504       0.10800057738875       0.01610235510785
C         1.93553101101827      -1.17948842985085      -1.31258742267235
C         2.12412460588878       0.66559579543558       0.13619803150048
C         3.14261364171292      -1.68616741562723      -0.85317063218355
C         3.32537181576562       0.19987344914269       0.62212702496234
C         3.84656859722654      -0.99679464070090       0.12062713764732
H        -0.71148721657393      -0.79383351326733       0.31599312461604
H        -0.72198727103371       0.95098953637289       0.72206998414145
H        -2.46603129565300      -0.47393492300842      -1.36405940489946
H        -2.51243839859863       1.28607281146229      -1.07533315542241
H        -0.18893852420961      -0.17176536089077      -2.08822080218717
H         0.18472160878584       1.49677982511969      -1.52309815743284
H        -3.20690599218666       0.86017025368291       1.30395939780902
H        -3.13218044117198      -0.88640673633731       1.00532837056197
H        -5.01267348109859       1.06782101533801      -0.47327896875212
H        -5.49920835951556      -0.03662761267281       0.83703024326141
H        -4.94219413284375      -0.69468744898555      -0.72028334238351
H         1.32440560113906      -1.69622899611748      -2.05041185331560
H         1.64814583703835       1.57708148509574       0.49088722918528
H         3.47507661962992      -2.64500718702824      -1.24981764811534
H         3.84029386074598       0.76442247623222       1.39937005497612
H         4.78966482683668      -1.38832971749173       0.50680330721801
B        -0.14541295408780      -3.39708556945705      -1.05426031860285
F        -1.05100315702562      -4.39207979542194      -0.70505631541474
F         0.96974175616035      -3.90252624317625      -1.78842609010382
F         0.36515484852127      -2.73428485492280       0.12400789756941
F        -0.78052076750122      -2.38630634811777      -1.87014578002722
