35
C9H18F3NO3S optimized with DFTB in AMS.
N        -0.53919311700499       0.49183381401045       0.36201096054513
C        -1.69821559022727       0.91611858428962      -0.49113164536716
C        -0.87363357903682      -0.92558175567634       0.69514413583646
C        -2.91891543225476       0.29966225240318       0.17921338023972
C        -2.38123779916474      -0.91590056867585       0.95327992058828
C         0.72533577013595       0.63710975947302      -0.42586093121730
C        -0.47058983625805       1.31155228000220       1.60514620435771
C         1.97712563677078       0.21453732053602       0.33779922538911
C         3.19796300509503       0.35163420981121      -0.57152082461490
H        -1.54041515822642       0.49816584334497      -1.48787989095314
H        -1.73027415327896       2.00157966998284      -0.54496090829667
H        -0.28971778692976      -1.25637433767009       1.55394296804439
H        -0.62472621626980      -1.54045104425311      -0.17316388263069
H        -3.65412100545618       0.00619293822878      -0.57140748613583
H        -3.38725418251199       1.01951676289132       0.85338004754313
H        -2.58616146666483      -0.81799969288568       2.02120801081010
H        -2.82766233934650      -1.84882968009316       0.60527647998082
H         0.78480614445800       1.69232562421569      -0.70864378309251
H         0.61430682049424       0.03209178634311      -1.32996150211789
H        -0.03706793164297       2.27733109083880       1.36024336021824
H        -1.47310247237260       1.45993298304191       1.99595387927121
H         0.14415701791001       0.79814560464692       2.34152404815881
H         2.11527473312684       0.84754356522091       1.21762736632612
H         1.88486730365517      -0.82296598224585       0.67339163480480
H         4.09526377116312       0.05749579156772      -0.02841251194361
H         3.09637129798064      -0.28624544067634      -1.45016881899215
H         3.31170681479699       1.38452163172656      -0.90049619235783
S        -1.26779736914024       4.38525169216792       0.19908589816559
O        -2.21024236710171       3.54079686110492       0.92859508028369
O        -1.85503076829030       5.39121659654817      -0.64166152586863
O        -0.18147604563682       3.61527411561763      -0.41351641216059
C        -0.38949402347135       5.29040492889245       1.55694833209288
F         0.23710173224885       4.38784781290928       2.32934577195454
F        -1.22653314932118       5.97107208254263       2.32626419004482
F         0.52621938017263       6.12442564961817       1.08512773799337
