62
C16H36F2N2O4S2 optimized with ADF in AMS.
N         0.11826820218621      -0.12990096091400      -0.12574956004304
C         0.97157182861570      -1.20215552603538       0.54735390048650
C        -0.76205248906559       0.51465872035141       0.92750178077917
C        -0.71700665705158      -0.79063075056421      -1.21481746578007
C         0.99327919807406       0.93998532477602      -0.75986256849004
C         2.05683263240034      -0.69602896146529       1.48190229044763
C        -1.80440836631769       1.49953489523858       0.42459817890605
C        -1.75535637616879      -1.78612519705137      -0.72861601553503
C         2.01547905027747       0.43822422232648      -1.76017619717652
C         2.59194242346755      -1.86136811944121       2.32148676759662
C        -2.61966875210817       2.04189989609032       1.60300396165330
C        -2.53463365919188      -2.34088184368235      -1.92592894442347
C         2.86222296758597       1.60460986216119      -2.27334947386080
C         3.79017014928305      -1.44474138556772       3.16748382391403
C        -3.68414805850012       3.04086006864979       1.15883285289949
C        -3.53916352506149      -3.40597230035803      -1.49871478899958
C         3.95179281805291       1.11604576013533      -3.22466392035085
H         1.40976830071662      -1.79707151971013      -0.26557276140903
H         0.26206024588601      -1.84120326774655       1.09118118529320
H        -0.07947584822454       1.01279067952265       1.62997403354001
H        -1.24917845612826      -0.31074517537525       1.46580260954408
H        -0.00788770718919      -1.29846727603063      -1.88110237320901
H        -1.18898711957525       0.02825132658513      -1.77865848294636
H         1.49150896344793       1.45657094552017       0.07492761628163
H         0.30252901015108       1.65050397200647      -1.23622185872388
H         1.68360741129820       0.08719855953389       2.16478453983154
H         2.89090286153481      -0.26938734692364       0.90097163500750
H        -2.48988903302602       1.01304415811461      -0.28885519855790
H        -1.32977492863906       2.34578107430802      -0.09896019272640
H        -2.46526583836676      -1.32270091607305      -0.02106441085357
H        -1.26343003368240      -2.62933192980632      -0.21823011991886
H         1.52974489946543      -0.06244050420612      -2.61258740661826
H         2.68387339509341      -0.30722804576423      -1.30730925712780
H         2.88055644087769      -2.69145694219928       1.65488639887702
H         1.77968999647656      -2.23784823850793       2.96979174392777
H        -1.93818115736060       2.52053718584405       2.32868667464270
H        -3.09822743694626       1.19790769342578       2.13182276418087
H        -1.81700956910021      -2.76848652372812      -2.64405250738541
H        -3.05562299731873      -1.51168046521947      -2.43964117046674
H         3.32601444641514       2.12452401129113      -1.41460358015120
H         2.21557603373704       2.34473639326022      -2.78008871924475
H         3.53953110785755      -0.59872813615554       3.82841490920472
H         4.62888498627820      -1.14203894396300       2.52216892997278
H         4.13565093162614      -2.27688880058932       3.79863740403554
H        -4.39370327116495       2.57642534670249       0.45662661479927
H        -3.22735801755678       3.90693405317720       0.65468073774287
H        -4.25865459120764       3.41635997411777       2.01859656713896
H        -4.26682973610230      -3.00585061191167      -0.77403622955993
H        -3.02143850396174      -4.25734746281363      -1.03009786334803
H        -4.09939166275951      -3.79014946959221      -2.36414334654253
H         3.50991658210438       0.61454157375170      -4.09950755434453
H         4.60333433796925       0.38657926942517      -2.71994084626126
H         4.57095962436554       1.95157186608187      -3.58360426274942
N         2.46597832292236      -2.76158005127750      -2.06218663455292
S         3.80176127522290      -3.19806621501063      -1.26643080258296
S         1.40228987973060      -3.84279861904430      -2.58685332434928
F         4.75744691206370      -3.82024627545322      -2.44401272638192
F         0.55296807675710      -4.20826820822741      -1.18283433914663
O         4.45360233845984      -1.95815905818812      -0.87113859227328
O         3.64467392882391      -4.27299766784552      -0.30506655210098
O         1.91168654192655      -5.11897045716419      -3.03472619882108
O         0.41692253772433      -3.10644340449090      -3.36596845478991
