38
C12H23ClN2 optimized with ADF in AMS.
N         0.19718587260793       2.29816304576349      -0.04783985041491
N        -1.81514844375554       1.48698683627512       0.11589056284077
C         1.59839810810406       2.46239599810493      -0.46179973107704
C         2.48366084387670       1.35543407497980       0.10707303162499
C        -2.98685303658377       0.62267984901966      -0.09382720345258
C         2.31283303583456       0.01803887375017      -0.60460680143654
C        -2.78235823845652      -0.75971814662067       0.52001192639756
C        -0.70637370702133       1.50168903816609      -0.63962729180900
C        -0.32225813672313       2.73784638955682       1.14553515839678
C        -1.58219928669006       2.22713247893524       1.24955305299431
C         3.09602210433714      -1.10184701612916       0.07690559699657
C        -1.86004695161061      -1.65929518855823      -0.29756749102469
C         2.91868838040063      -2.44133881364333      -0.63105236974414
C        -1.58903934290703      -2.98029600616181       0.41735178576807
H         1.90599949104655       3.45775925945847      -0.10695543124964
H         1.61565207665320       2.47979633001149      -1.56377330521679
H         3.53208759047091       1.69803151828359       0.04268697457408
H         2.21952989397417       1.20694508447083       1.17170192909971
H        -3.83858425749024       1.15088584590758       0.36065378022304
H        -3.16635137672945       0.57159935101393      -1.18021484148990
H         2.60712873189174       0.10822085444124      -1.66968887916535
H         1.24829225411267      -0.26963968114853      -0.55259309492714
H        -3.77689781076401      -1.22754266982224       0.63101500311732
H        -2.32955639580851      -0.63574229772415       1.52266255005685
H        -0.57742321358982       0.99096709526436      -1.58371118275007
H         0.26006084706081       3.32796535741706       1.83962431646467
H        -2.30713101987163       2.29093083559246       2.04947136890805
H         2.71496263579549      -1.17587240439636       1.11108600670384
H         4.16847910610820      -0.83549273597962       0.12733036795916
H        -2.29145560350437      -1.83093582467301      -1.30303328815347
H        -0.88956831419484      -1.14668813386239      -0.41049601319488
H         3.27629199270854      -2.39847537900845      -1.67389419125719
H         1.85349541345787      -2.72330776105970      -0.64499837454895
H         3.46954889867425      -3.24348321250375      -0.11648121022927
H        -1.05291130654225      -2.76660604372578       1.35619568000280
H        -0.96147159857937      -3.64403611919345      -0.19697640748223
H        -2.52659444483666      -3.51341915762368       0.64805343471032
Cl        0.20087064844370      -0.26521789827800       2.13425133558489
