38
C10H22BF4N optimized with DFTB in AMS.
N        -0.78935823110581       0.19690310864455       0.18899674971100
C        -2.00735943047087       0.94586578299430      -0.27813437870596
C        -1.20687385730082      -1.19622010879248       0.57843359522400
C         0.13641092320139       0.11881881921229      -0.99966717806748
C        -3.11764737977627       0.98664875219677       0.76226441027481
C        -2.32464549955801      -1.22148470471953       1.61421727004510
C        -0.11879644818855       0.85851307268708       1.35548011513804
C        -3.54084624374159      -0.43227233173055       1.13617853859178
C         1.47190730144251      -0.57600965162237      -0.74936939628880
C         0.39195165878902       2.26722709463384       1.08969385358928
C         2.09962919099800      -0.91775678944698      -2.10172182214075
H        -2.36284224034747       0.42623981682571      -1.17181568705030
H        -1.69379475812992       1.95265445703335      -0.55863426995402
H        -0.32763827399315      -1.71055725256164       0.97032661097758
H        -1.53487957970439      -1.69428554711841      -0.33702804365581
H         0.29967600491801       1.14010996089144      -1.35013861159397
H        -0.41162650014897      -0.42125313432308      -1.77306370644075
H        -3.96089558406086       1.51788494892204       0.31342653785333
H        -2.80807694498328       1.54523171540200       1.65161300244307
H        -1.97462996855302      -0.83677586528773       2.57789109835669
H        -2.59974676385091      -2.26975909218159       1.75802502751610
H        -0.83640352857170       0.88637525064508       2.17702554439171
H         0.71133504120391       0.21263944756716       1.65154285096375
H        -4.29772705467047      -0.40220511845291       1.92367287529059
H        -3.96788342044286      -0.92330189800446       0.25778166127307
H         2.14845679205603       0.06768750498843      -0.17816543001713
H         1.32998713939276      -1.50248660785725      -0.18819084570168
H         0.84973600348260       2.63070173804010       2.00982946417548
H         1.14558695221709       2.28626693739508       0.30503047454862
H        -0.41624149237551       2.94527930164010       0.82163661854198
H         3.06018718917440      -1.40923480765582      -1.95040894946284
H         1.44233436241663      -1.58843655245163      -2.65558689985928
H         2.25658827381282      -0.01406740684477      -2.69129218187590
B        -2.31974559704931      -1.60791029930118      -2.77299147526925
F        -2.87755929438859      -2.25842965818554      -3.82916605645786
F        -1.12449462572959      -2.23699167609468      -2.33114266008793
F        -3.19494660770971      -1.56001362277629      -1.65348954786374
F        -1.98710114365349      -0.26499657881042      -3.08433844491255
