31
C9H20ClN optimized with ForceField in AMS.
N        -0.05987177672564       0.22417363369072       0.16204077060906
C        -0.97496013299604       1.23449212657055      -0.45794012940246
C        -0.50006160004177      -1.15880985787471      -0.19636892016739
C         1.30563497496714       0.48795078206936      -0.40259013353103
C        -2.46827622934023       1.00449184975283      -0.16144315435250
C        -1.98009067069553      -1.43673398052646       0.12525725434249
C        -2.88754507913766      -0.41042842777890      -0.54392864720736
C        -0.03137559496475       0.40423515955754       1.63924709571887
C         2.44646020906564      -0.40658959258255       0.14085166340102
C         3.77231002830029      -0.05721974990542      -0.53197184586844
H        -0.86187178819737       1.22746936592774      -1.56744732509859
H        -0.70817014911845       2.26196519226810      -0.12055316947109
H         0.09809765357047      -1.91979987032104       0.34929158240946
H        -0.34686192051864      -1.34219231124103      -1.28473269675652
H         1.59369300302913       1.54792099827029      -0.21266625581722
H         1.28623442666834       0.36723524586265      -1.51078869478984
H        -3.06700304902404       1.72779131857342      -0.75613619472204
H        -2.70051022410697       1.20081783372535       0.90533503120816
H        -2.14925167264386      -1.43759199137644       1.22277650871724
H        -2.24757747738263      -2.44913802236180      -0.24693624583622
H        -3.93894810711718      -0.58260739084852      -0.22733674459820
H        -2.83602644847889      -0.53003765476125      -1.64850108323347
H         0.54987814137294      -0.39976454605122       2.13799355582423
H         0.41343835836558       1.38466910973868       1.91395920595325
H        -1.04174166914637       0.36614467200958       2.08976601249523
H         2.57839981467191      -0.25831988339942       1.23194656485682
H         2.23962661530610      -1.47764806974828      -0.05672666182206
H         3.70428357799198      -0.21841923692268      -1.62907473385051
H         4.03882644342834       1.00300783929979      -0.33341502730861
H         4.57843134552867      -0.70580288784259      -0.12847952594113
Cl        1.86884931836950       3.94616991862570       1.75572071373883
