35
C9H20BF4N optimized with ForceField in AMS.
C         2.68933589339553       0.38234867904204       1.52971660085730
C         1.63206195044328       1.30518146086879       0.94485828350349
H         1.36686650235032      -0.85755309632404      -0.90040255960565
H         0.40330548901398      -1.68870941543395       0.36467780542172
H         3.18152854085876      -1.40213651501689       0.38398982647092
H         2.16830160520688      -1.69346614234795       1.85496333503588
H         2.63081511434658       0.39696150175341       2.63903165055289
H         3.70999031545128       0.69449672374908       1.21588101585572
H         1.34968695896139       2.09801116723988       1.67573006113673
H         2.08855481181127       1.81965518607757       0.06639556524264
H        -1.22111632992837      -0.45266758689916       1.49467136097395
C        -0.44360072414040       0.31579641424256       1.69479453439025
H         0.10624563739878      -0.01454504261011       2.60427652960027
H        -0.95327457033242       1.27640501640456       1.93045372894663
C        -0.20821514684641       1.14060260453712      -0.62154998475020
H        -0.33900823518812       2.22272672991727      -0.38678846319124
H         0.43969996040935       1.11272889215204      -1.52714685976051
H        -2.32527207207787       0.71953399121978      -0.15540375633316
H        -2.99855935942068      -2.13429927596421      -2.62036018817095
C        -1.64775994691746      -0.79921345110882      -1.57094737966087
H        -0.83377524356990      -0.93530252407005      -2.31575049845388
H        -1.51730120424553      -1.53193013285987      -0.75082078648583
C        -2.98809371325255      -1.08972615387529      -2.24359121150994
H        -3.14757528150339      -0.40345960014241      -3.10265252170939
N         0.47282265456694       0.47427033910034       0.53579741584962
C         1.08172740366040      -0.82908413590744       0.17552015850530
C         2.35174461450478      -0.99910377972116       1.00521101922623
H        -3.81982653368888      -0.96358716933883      -1.51684340742737
C        -1.61789033571546       0.62710453702932      -1.00578037603994
H        -1.99846396429578       1.31613973201647      -1.79237254123335
B         4.63456429164701      -1.14727585606886       4.57464893732192
F         5.62971242359836      -1.26741011404356       5.58061435411838
F         3.57700453939939      -0.32827249004141       5.05210356089425
F         4.12758365631065      -2.43414696289995       4.25233113804109
F         5.20470466728830      -0.55930298057627       3.41442521028710
