46
C14H29NO2 optimized with DFTB in AMS.
N         0.04916939857542      -0.02854161905258      -0.16678610204051
C        -1.25685277352256       0.52532141923286       0.29810327429694
C        -0.08639298220792      -1.51580711820515      -0.35766743491452
C         1.11522811014663       0.14939232687215       0.88045489918870
C        -2.38086931858197       0.22076422743955      -0.68832837936565
C        -1.19600953432739      -1.89500418345742      -1.32315866917668
C        -2.53125510143644      -1.28604713918759      -0.89998495900942
C         0.49375842197942       0.63285457393808      -1.42703105360242
C         1.44964246296138       1.60071379537198       1.21337229380743
C         2.63545894010174       1.67596236891326       2.19438336713360
C         4.00104609538450       1.85126394310314       1.51579302979901
C         4.49942962457066       0.60840895859974       0.76992986392849
C         5.95903886799237       0.77146632280257       0.34787679612765
H        -1.14477992360865       1.60453247757536       0.42097928257897
H        -1.47362008026073       0.07691155195521       1.27225169789439
H        -0.27773918416797      -1.94164363830258       0.63153076752891
H         0.87878651467659      -1.86419850791131      -0.73198460001723
H         0.77469367207997      -0.36906264014720       1.78089345561759
H         1.99331955147774      -0.36469677978256       0.48058269284409
H        -3.30551397253900       0.63553844285329      -0.27760040865919
H        -2.18642857995058       0.71761057519461      -1.64237727068109
H        -0.92507959039227      -1.59123719586821      -2.33679327082432
H        -1.26846561888469      -2.98546684327526      -1.31982454567406
H        -2.87078834437540      -1.75015490359721       0.03258165044414
H        -3.28701240522511      -1.47295090427457      -1.66657460699328
H         0.31892591040565       1.70422697693849      -1.35423164349652
H         1.55220593290621       0.41819956862742      -1.55641227887521
H        -0.04606457923485       0.21905997142147      -2.27193536437893
H         1.69674185582511       2.15764119722993       0.30657485788166
H         0.58148821981164       2.08221560367030       1.67423926547790
H         2.47442306888083       2.53863576278748       2.84870109546408
H         2.64841509842425       0.78399784569398       2.82956125486705
H         4.72392073407431       2.10657319224988       2.29915228994756
H         3.95493840346201       2.70088921400743       0.82554599775215
H         3.89465866645937       0.43089983797245      -0.12299962152343
H         4.40750806025061      -0.26965410877059       1.41769621260320
H         6.07836302837296       1.65017212370212      -0.28787064982324
H         6.60250372445326       0.88298305925236       1.22229677873529
H         6.28085180484973      -0.10722097100427      -0.21149876173786
C         3.69046486824626      -2.21503074986003      -3.27814076280693
C         2.54048652297335      -1.65051575071557      -2.41569674059625
O         2.83389183179072      -1.28573391572339      -1.24835063401382
O         1.41180248603488      -1.59950489550934      -2.94165363705506
H         4.62983029176391      -2.18250136264051      -2.72974580221868
H         3.45759203855155      -3.24336117503251      -3.55120246092440
H         3.77267326963260      -1.62557499088724      -4.19025986311013
