67
C19H28F18NP optimized with ForceField in AMS.
N        -0.69135585844037       0.52627871322649      -0.21238031098263
C        -1.66976708630012       0.26940865005738      -1.31932565589983
C        -1.24006474969960       1.60778222342873       0.67046498928693
C         0.56752052730035       1.03125746413935      -0.86272349560942
C        -0.43485460501983      -0.70991127456919       0.60786585603817
C        -3.08900645554551      -0.07623010586043      -0.83708116047056
C        -2.66122476615570       1.32661295706203       1.20032050299996
C        -3.63163704635352       1.03049305344323       0.06097058031559
C         1.76341686542517       1.28516343034070       0.08915709261561
C         0.23644403632799      -1.88710356658814      -0.14210580344970
C         2.97125158740833       1.82004513603746      -0.69080973499447
C         0.46441596616709      -3.07136789868233       0.80605909703340
C         4.16930389471151       2.04178574377944       0.22852433850028
C         1.13834301599951      -4.23499709571192       0.08476530829297
H        -1.31695067949751      -0.53417984776357      -1.99824086819567
H        -1.76126820491671       1.17442604584490      -1.96484690092246
H        -1.27514061054991       2.57803324756028       0.12297845893155
H        -0.59090109246527       1.76544805859821       1.55843080524677
H         0.35982753620908       1.98754770693396      -1.39683811560253
H         0.89976673120905       0.32960696422855      -1.66004697737237
H        -1.37567999559941      -1.10006619302958       1.04166984393417
H         0.18801051288807      -0.45764858444733       1.49389107076335
H        -3.11064106099737      -1.05250164338090      -0.31065740661811
H        -3.75462655390975      -0.17622194289479      -1.72170362959069
H        -3.02221909815390       2.22173316272686       1.75189212928303
H        -2.65590320054572       0.48682866194476       1.92594507620645
H        -3.78936294005605       1.95306627168013      -0.54044240526970
H        -4.61377341902865       0.72137602755916       0.47969625111194
H         2.07058612526478       0.34525830294426       0.59116801053693
H         1.49298411200731       2.03247889528332       0.86254164854118
H         1.22026224177983      -1.58442573305400      -0.55419966052827
H        -0.40923500263819      -2.23511327833794      -0.97341245494836
H         2.70727896584411       2.78542127286621      -1.17548811556193
H         3.25845152831143       1.09512828372020      -1.48364812672041
H        -0.50991654472641      -3.41819761228181       1.21481548332077
H         1.10886857601933      -2.75490860941018       1.65515969767682
H         4.47796391990543       1.08307912863132       0.69759352470870
H         3.91593468564228       2.77497833708489       1.02374519715686
H         5.02221439635442       2.43834679489114      -0.36136642020582
H         2.13397729741402      -3.92484472799176      -0.29736993649625
H         0.50993212037987      -4.58036303331933      -0.76381535957679
H         1.27665332925252      -5.08009951289855       0.79133560366084
P         4.72051626023913      -4.61679389307187      -4.75727750950217
F         5.18683554641407      -6.05369179252892      -3.93106764735812
F         6.06468648947493      -3.57817643658433      -5.04959158933942
F         3.30527700284021      -5.58990626197297      -4.85940799938965
C         5.67889381641317      -5.55685222859981      -6.15801620037014
C         4.88151144721221      -4.14111907431459      -2.88771037212617
C         3.41445167700687      -3.35369414875039      -5.41736004696964
C         5.16565216270552      -6.96575126653307      -6.56308675481415
C         4.70995346943726      -2.65203598408117      -2.52031741902177
C         2.99309815034393      -3.48871145239202      -6.89427481731517
F         7.00098159867380      -5.72604989691149      -5.76451960860174
F         5.70117319389800      -4.78282254641349      -7.30098904742848
F         6.14441718887922      -4.49936533625232      -2.42467827132060
F         3.93552549875863      -4.85018403428200      -2.16083049046686
F         3.92917517012788      -2.07633609284949      -5.28784282870601
F         2.26554625608763      -3.41392473943483      -4.64030161398590
F         5.87065525145505      -7.39018636439673      -7.67574559053046
F         3.82721369834136      -6.96576743045130      -6.89242369830617
F         5.37959259700643      -7.89170633852036      -5.55777545606454
F         5.01816901892446      -2.48857325922585      -1.18087992510155
F         5.56565159828198      -1.84822624573932      -3.24965010414898
F         3.40661980420068      -2.23176791062864      -2.69537183875486
F         3.99777490681516      -3.04502080774095      -7.73360092985094
F         1.88463106653248      -2.69117217441548      -7.11867405811085
F         2.65157348360795      -4.78202965229984      -7.22137190436199
