52
C16H16F18NP optimized with ADF in AMS.
N         4.36556685143475      -0.43760706005393      -0.45445952703058
C         2.71342751967605       0.58269074103916       1.08272111527450
C         1.40896323559198       0.37259993430287       1.84624422162518
C         2.97514889690580      -0.52296810688852       0.06914482755861
C         1.23467636583170       1.43154855754894       2.93628794580959
C        -0.05420916787243       1.25546846942499       3.73167449644736
C         5.29752644157458      -1.32092638170911      -0.04021572600435
C         4.70176263302818       0.59988808931414      -1.25438758195472
C         6.61358846625559      -1.19700733150181      -0.44281482286073
C         6.00297088557921       0.76643336867110      -1.67690496273747
C         6.97643182868452      -0.14256190319872      -1.26869510369587
H         3.55419289873164       0.60544382753099       1.78839514951122
H         2.69835153739014       1.56251992008052       0.57507449115195
H         1.41676592763631      -0.62967869010620       2.31476077684551
H         0.54513535414227       0.39526126416397       1.15533608478719
H         2.87716318058967      -1.51328471168658       0.53554654735844
H         2.29643834268352      -0.47995729012542      -0.79746147621697
H         1.25768560891062       2.43434579656037       2.47363520681230
H         2.10377739702661       1.38669778005250       3.61385534417808
H        -0.93944517722962       1.32956871983481       3.07944142200600
H        -0.14381434978287       2.02631569942017       4.51175732475290
H        -0.08060630093481       0.27209904821543       4.22822441753697
H         4.96420182076153      -2.09023528437545       0.65191434084955
H         3.89791103604970       1.28505355241787      -1.51484525983726
H         7.35052864660088      -1.89960006510076      -0.05769773350919
H         6.25473426403686       1.62505027606517      -2.29800053548402
H         8.01718631344844      -0.00663518927514      -1.56317741154543
P         6.99935274977280       1.00840149618348       2.81839350979745
F         8.03696829005291       0.11527124953726       1.85003480207335
F         7.98610565981021       0.87197793445584       4.13781165351692
F         5.93430630167604       1.12033399515681       1.50880533012460
C         8.11146059769266       2.54923914213958       2.25399035190276
C         6.16783957646209      -0.77718379514749       3.32355668759476
C         5.67502193897279       2.13273500656519       3.90222306466162
C         7.94711924933052       3.14430318508281       0.82287464253645
C         6.36560730382242      -1.31898225822600       4.77820635911893
C         4.86357229976122       3.35542592825768       3.32204746703743
F         9.43755380857856       2.17848872019656       2.31418573065284
F         7.97810935921446       3.60151905889478       3.12694706559731
F         6.71021667593306      -1.79563585263216       2.54340194500570
F         4.80887794016015      -0.84564503561777       3.04723980683632
F         6.27958023766109       2.61752263965215       5.03269562840561
F         4.65256374013224       1.29629829333548       4.33041216506040
F         8.73423501077394       4.24245317251636       0.67921825665431
F         6.67392360572879       3.51861145008151       0.54227933041277
F         8.33302458693234       2.24250708566108      -0.12507466422054
F         7.65570946171713      -1.66747279178850       4.97861633628319
F         5.99960243389996      -0.44149690148309       5.73187476245541
F         5.60540385677356      -2.44642422932099       4.93928463126649
F         5.61077217248268       4.44910123807103       3.08301817351101
F         3.91476759154608       3.71213993559441       4.23651932205912
F         4.20882558586145       3.03738684051264       2.17356746802706
