36
C8H18F2N2O4S2 optimized with ADF in AMS.
N         0.58895107818155      -0.28493847378565      -0.43297163619016
C         0.15286113100491      -0.32039251786313      -1.89000845381515
C         0.32451784612049      -1.71226631242405       0.01525000594742
C        -1.09592266301757      -1.19977700232336      -1.91501530058912
C        -0.99866507685256      -2.09038816849845      -0.64723306631839
C         2.05119040680832       0.09290837527495      -0.33621458648899
C        -0.26862913428442       0.67032627203917       0.32935506536623
C         2.65245598701325      -0.01579996503867       1.05268096395653
C         4.12677741052078       0.39013144128431       0.98731384266798
H         0.97804866028297      -0.78354977357489      -2.44881871514123
H         0.01147570301791       0.71262505299217      -2.23659034608439
H         0.31676131508448      -1.74815985271023       1.11191115426976
H         1.15817598223919      -2.31411258648214      -0.37694129318191
H        -1.08697314853246      -1.80125820455403      -2.83426884210675
H        -2.01752172968439      -0.59913660181706      -1.90821150976640
H        -1.84968277010036      -1.91213667707358       0.02726008775511
H        -0.97775794486401      -3.15892959172668      -0.90018481559475
H         2.12833237898250       1.11872474298526      -0.73239989315684
H         2.57847413789088      -0.58076094712193      -1.02259080115974
H        -0.06808748783016       1.68730323404867      -0.03135983530097
H        -1.32209081200940       0.41666727964726       0.16461365632044
H        -0.03274592393113       0.59670270131451       1.39678341020071
H         2.12096134433611       0.62521862823741       1.77605084986676
H         2.57766332849603      -1.05837474437669       1.40305256392112
H         4.60409642317012       0.27294078142232       1.96999970587791
H         4.66440552772256      -0.23389551061592       0.25805926999248
H         4.23078849134188       1.44302020673732       0.68127522176881
N         2.84469694424333      -2.96340509879572      -2.03451341845758
S         4.01155651005590      -2.18103398038635      -2.82359802711185
S         1.71833338433026      -3.80583697561553      -2.82554024260296
F         3.18267629537912      -0.84624794731337      -3.44089497449796
F         2.54113664132192      -4.99501418258809      -3.58394857318480
O         4.86867898719451      -1.58010547276358      -1.81708852927107
O         4.54931091023830      -2.82829234390094      -3.99836283763462
O         1.04630074626685      -3.07797779442605      -3.89204747462725
O         0.92121602456236      -4.47822052700726      -1.81230325062838
