54
C14H26F6N2O4S2 optimized with DFTB in AMS.
N         1.79637130920533      -0.68297495550460       0.03920278002394
C         2.94525075363928      -0.71089578716117      -0.93249347311285
C         2.23106029177364      -1.55487376539484       1.19445009785275
C         1.55918214517881       0.71918510011744       0.52953675727387
C         0.58860856468633      -1.26150623188419      -0.63634198716035
C         3.59710707645305      -2.07091995697241      -0.76279579436956
C         3.43954098695760      -2.36851468545518       0.72663736297575
C         1.22435647082982       1.71702916584737      -0.57527917651509
C        -0.69973524424030      -1.19097836636688       0.18216523185778
C         1.24936474517059       3.13798183624336       0.00373571712086
C        -1.79497086559133      -2.00611611029107      -0.51723106816566
C         1.05479116313401       4.17903795292065      -1.09544484031543
C        -3.11145046261689      -1.93059966081284       0.25283291079537
H         3.63398014131205       0.08341056874936      -0.64530083298246
H         2.58080438470423      -0.52488792268403      -1.94169016126646
H         1.39603071833787      -2.18817131196839       1.49363326570007
H         2.49956519858999      -0.90611717712494       2.02813803058546
H         0.76350559870643       0.67702706976473       1.27611616061977
H         2.48227795041922       1.02501507433776       1.02507098017421
H         0.45168864096897      -0.72234486536682      -1.57670274998643
H         0.83027198856633      -2.30218823490673      -0.86860419737967
H         3.09760348183078      -2.82691242565596      -1.37440630335569
H         4.64737611000760      -2.01619348490039      -1.05259679824922
H         4.32891667893845      -2.04207906017225       1.26906959428489
H         3.28938269514506      -3.43331575041548       0.91146975772495
H         1.96513013633743       1.65173108113843      -1.37491802049997
H         0.23986240741584       1.50702105455054      -1.00403249390684
H        -0.54337572031757      -1.58615293735307       1.18938449478161
H        -1.03156398151224      -0.15368460599901       0.27385357935865
H         2.21549606195496       3.30727068200192       0.48859062871782
H         0.46463208159370       3.23792573477761       0.76111299167353
H        -1.94124160144628      -1.62094784323701      -1.53161592023766
H        -1.47620514237868      -3.05062517528777      -0.59702777481144
H         0.11957419441839       4.00853805887678      -1.63116640905762
H         1.88210216450775       4.13323191714581      -1.80372638940918
H         1.03048695339068       5.17588262439582      -0.65629355457363
H        -3.45438927866245      -0.89784737661350       0.32321216681965
H        -2.98768753433403      -2.32617228812742       1.26153860009652
H        -3.87374896689586      -2.51645231037882      -0.25995446939115
N         4.46742405530229       1.95749613671007       0.38372848463442
S         5.23062329086338       2.82653908295013      -0.73767302312987
S         5.28410684977676       0.82624461089514       1.17833013195214
C         5.24389135917365       1.82416209750245      -2.32237689053820
C         6.71954535944702       1.55977355591504       2.14684257003118
O         4.34212469784487       3.90903724485679      -1.06897807219632
O         6.61132413434467       3.10592251393383      -0.45161387367431
O         5.86765949521026      -0.20187552698160       0.33614301471843
O         4.36413375732251       0.36056067461655       2.20293563140047
F         5.68239949324403       2.57020590023708      -3.31741655824867
F         3.98327122508418       1.45220494647394      -2.60056316023896
F         5.97725758476625       0.72992349640327      -2.24408061806297
F         6.84707437229914       0.85732222063943       3.26126333866589
F         6.46683741969831       2.81540964929974       2.45806049773712
F         7.83655973534410       1.47927440711532       1.45921615175857
