23
C7H9F3N2O2 optimized with ForceField in AMS.
N         1.11326160050769       0.00138539101246       0.00052269719119
N        -1.10821381554487       0.00546282682102      -0.00095925483345
C         0.00110678730639      -0.75902283946412      -0.00009466672472
C         0.69470667094812       1.28151956313503       0.00009130735166
C        -0.68463421356486       1.28390286511277      -0.00096239451940
C         2.49639969902708      -0.45501056067093       0.00192958982479
C        -2.49313101417161      -0.44567382167141      -0.00108731467086
H        -0.00085668607631      -1.84170694100269       0.00034520728087
H         1.34291498067159       2.14748307884866       0.00086991203721
H        -1.32902150839276       2.15177630225331      -0.00103324791283
H         2.54170218592399      -1.56490072200852       0.00068468977260
H         3.01440733102071      -0.07157610631352      -0.90216894184881
H         3.01184646273792      -0.07367608049103       0.90837189295045
H        -3.00895417610474      -0.06031678709492       0.90344858304697
H        -3.00805509334193      -0.06242378755261      -0.90702831412190
H        -2.54254015190453      -1.55544795227314       0.00037600791915
C        -3.82653195023417       4.44623799222935      -1.24103470488972
O        -4.91574092139969       4.05146451012723      -1.62630881353689
O        -3.36053475139487       4.00985830435372      -0.20091145052024
C        -3.06076214178680       5.46440600470677      -2.03397888525038
F        -2.85981790264650       6.59435974107990      -1.26344327352068
F        -3.75710378502518       5.81785515844490      -3.17662118091212
F        -1.83454859795469       4.94059914201777      -2.39913613271288
