46
C14H29NO2 optimized with ForceField in AMS.
N        -0.70499263650676       0.30401572655875      -0.15128976106399
C        -1.26863481916632      -0.45797593752893      -1.31355489191431
C        -1.83401372473535       0.70974160689449       0.74978807085004
C         0.28958181373477      -0.51494373101580       0.62796862778345
C        -0.07575955547513       1.54659232580570      -0.71945287122038
C        -2.12659892914126      -1.67074837515076      -0.91477557145956
C        -2.73357135196229      -0.46075631522148       1.19734673209979
C        -3.26807869751597      -1.23928863868535      -0.00034555360181
C         1.57107992286851      -0.92601214573822      -0.13859856627222
C         0.64937779720232       2.46069917711788       0.29929982631856
C         2.51148397108941      -1.72935525278797       0.76986267506131
C         1.21487009480045       3.70052865143508      -0.38989514740636
C         3.77457854115624      -2.15068594042699       0.02418641670542
H        -0.47083950961576      -0.79673893153566      -2.00612702738622
H        -1.92030450192832       0.20821847895451      -1.92666581265722
H        -2.48800037216913       1.45698638527780       0.24352026400020
H        -1.45282511136400       1.19394274085923       1.67434168426933
H        -0.17350099866719      -1.44854384852145       1.00195964960133
H         0.59244081489154       0.02774907857408       1.55035735090894
H        -0.85266869909456       2.16568998385629      -1.22594037656357
H         0.64426980507034       1.28346010050323      -1.52636819517580
H        -1.51304865353768      -2.45697681284692      -0.42885993186341
H        -2.55848257788242      -2.12350355426177      -1.83343711220193
H        -3.59481463716973      -0.05411824839287       1.77054173543596
H        -2.18830275676253      -1.14176045817241       1.88346914351511
H        -3.98008709050397      -0.60126890995968      -0.56932139895758
H        -3.81879603205579      -2.13669337851800       0.35515310147990
H         2.12201274596464      -0.03225262370132      -0.49505284604854
H         1.31307108674912      -1.56109824354101      -1.00995517732713
H        -0.04823785564637       2.80421359917313       1.08921785767548
H         1.49743225896514       1.93017337534762       0.77748738078235
H         1.99215860962292      -2.64173725643583       1.13650736728882
H         2.80307672281074      -1.11276098309424       1.64815917473079
H         1.73520635976207       4.33677416808823       0.35713795107206
H         1.94410358440743       3.40813089136892      -1.17544895193565
H         0.39679375942296       4.29408765650030      -0.85107007999088
H         4.32822234234064      -1.25685994425984      -0.33003272962474
H         3.51476042366072      -2.78842366857991      -0.84747773770368
H         4.43357870176301      -2.72903597601886       0.70532076501568
C         6.61137981485379       0.94238744664607      -0.72365762181236
C         7.28804384301544       0.82824365932766       0.60582436345889
O         8.50249048845222       0.92011408879738       0.68111166616362
O         6.63027846610501       0.64407131972229       1.61752573291390
H         6.83579638137100       1.93224012679497      -1.17307916294747
H         6.97919195297176       0.14189936509406      -1.39965052296028
H         5.51082901154834       0.84393091149761      -0.61327128823583
