36
C8H18F2N2O4S2 optimized with DFTB in AMS.
N         0.01471348297501      -0.12949005768173      -0.18225812925289
C        -1.03358246746072      -0.46431005398449      -1.20440907881613
C        -0.26550925787349      -1.06963292627848       0.95033019055536
C        -2.28031676255083      -0.83859504240962      -0.40833330130349
C        -1.78438668170830      -1.20876844481808       0.99713064427845
C         1.38501957557276      -0.32486712622433      -0.76708548466617
C        -0.16675359879803       1.27661886439720       0.26279452522484
C         2.51338817723722      -0.23670658548790       0.25902304098041
C         3.86292382528708      -0.31109623210388      -0.45540576241782
H        -0.67230261806650      -1.31424733004650      -1.78532483176205
H        -1.17308561505397       0.39128652150427      -1.86590525878692
H         0.16290989882109      -0.66902008319439       1.86897244340958
H         0.20759988606752      -2.02753308420816       0.70965041962914
H        -2.77322308766823      -1.68882084745303      -0.88281330475978
H        -2.98760621067574      -0.00728886926053      -0.36885994591531
H        -2.21641732368475      -0.54646561384440       1.75071573056865
H        -2.04946110123328      -2.23731347905796       1.24652744976648
H         1.50543580261582       0.43752901770542      -1.54206656941648
H         1.39130959699867      -1.30742671549731      -1.24249063017738
H         0.02669849176745       1.94147156993562      -0.57721607988708
H        -1.18819372111767       1.40980846713228       0.61210768173797
H         0.52631153443201       1.49289749945311       1.07260013089870
H         2.45206012229524       0.69964230349890       0.82170297396526
H         2.44016692917537      -1.06864653230282       0.96355588768992
H         4.66453469379004      -0.25943569213650       0.28016839757886
H         3.95168957279276      -1.24973176969993      -0.99963076684743
H         3.97425793906937       0.51744490355201      -1.15616703932378
N         0.85260363121560      -3.82166847108000      -0.08230848760506
S         2.39014974677327      -4.01011220317460      -0.45293752492099
S        -0.23203842870884      -4.00649939569185      -1.22374961391691
F         2.63362282371351      -2.98967859830143      -1.71103504445583
F        -0.17964014023473      -5.54768084698281      -1.65479314741906
O         3.14000317318891      -3.41480514944918       0.60763205793023
O         2.76888190223233      -5.28289536978000      -0.95765497692426
O         0.01922345817781      -3.27455701489636      -2.43267463870587
O        -1.51344865216378      -3.82776080613254      -0.60707518703320
