37
C13H21NO2 optimized with ForceField in AMS.
N         2.32651087322420       0.08184450319283      -0.55181631335264
C        -1.49389113745653       0.04818520382736      -0.69009682993652
C        -0.08707549655216       0.02488701629490      -0.08120523109087
C        -2.56427908256210      -0.02715531398224       0.40562600838708
C         0.99268159720306       0.10172646010887      -1.16528508840980
C        -3.97495707404346      -0.00901565573469      -0.19466668383176
C        -5.03782783316068      -0.08496612858311       0.89791442066193
C         2.95456078537882      -1.11338217587618      -0.32875952770933
C         2.92404112840771       1.25764578683740      -0.18687241035972
C         4.21710806310432      -1.15041833752184       0.26808669150424
C         4.18502123602968       1.25564388498647       0.41428150178137
C         4.83316190846063       0.04308501518874       0.64075760265256
H        -1.61067862384599      -0.81657636939448      -1.38013826645463
H        -1.62782486276566       0.98661452680948      -1.27238783615622
H         0.03077866382201       0.88784304017686       0.61050964496135
H         0.04864934051152      -0.91349787441149       0.50022524552213
H        -2.42673376358449      -0.96357523391766       0.99014387415765
H        -2.44750101798324       0.83919291257870       1.09358878364638
H         0.85986203377171       1.03038221811652      -1.76469220540036
H         0.88116169477656      -0.75304613180924      -1.86971540163400
H        -4.12324313017529       0.92684516745192      -0.77629457049849
H        -4.10196638434820      -0.87469558412442      -0.88065615270803
H        -4.94920963139844       0.78434763308897       1.58392413541496
H        -6.04785197323752      -0.07136371052104       0.43662058700795
H        -4.92640031253923      -1.02434825401114       1.48045196520299
H         2.47982649285804      -2.04629575436638      -0.60899557964253
H         2.42561034098628       2.20487451101584      -0.35546517908292
H         4.71237126516198      -2.09709658911940       0.43851106668801
H         4.65507090800711       2.18709759672022       0.70216190344734
H         5.81048940560932       0.03025961696565       1.10283744215843
C         6.12597707970092      -3.06425681353034       3.27715549252798
C         7.14742124453973      -2.27440659553996       2.52108674570056
O         7.64146607213271      -2.73255634832441       1.50377241017767
O         7.48971017124093      -1.17200193975754       2.91745039179152
H         5.24944159637634      -3.26416225796973       2.62653300521831
H         6.56735696188750      -4.03016681435761       3.60029853788878
H         5.78549446136190      -2.50617343300782       4.17526254186865
