47
C15H25F3N2O2 optimized with ADF in AMS.
N         1.37205263633769       1.53594325430884       1.97317131914729
N        -0.68889665917588       2.04313447421708       1.54882155200404
C         2.80793661618419       1.32880223409771       1.77200445531765
C        -1.86115725672231       2.51320399581604       0.79770378450585
C         3.11423102141861      -0.15501245356635       1.57458608164224
C        -2.13262949251780       1.59926522926848      -0.39404181833115
C         2.31119045254210      -0.80535970581529       0.44982951591986
C        -2.29922216049702       0.12648787899977      -0.02605260944662
C         0.55932526881550       2.08758177828687       1.06294150515361
C         0.62786334779888       1.11823226781080       3.05661516360714
C        -0.67294440250436       1.43928101912633       2.78828892447239
C         2.60387954529948      -2.29779346003269       0.29904929214615
C        -2.56313811485520      -0.75933308753568      -1.24240249719997
C         1.75749423090271      -2.95565469154193      -0.78804494964345
C        -2.68594396727041      -2.23852619052879      -0.88632128842279
H         3.33128822695796       1.74749348763596       2.64441342476833
H         3.07863050846876       1.94864312135954       0.90519144958245
H        -1.62288927163440       3.54176065679160       0.47778035404479
H        -2.70410184994234       2.52304352856898       1.50397452263353
H         2.92479674064354      -0.69945345176486       2.51842991750006
H         4.19589438960100      -0.24919597893062       1.37495690384256
H        -3.03997131093187       1.97264798754774      -0.89999938148460
H        -1.30691606249996       1.71437879210084      -1.11886256446794
H         2.51833356649643      -0.28536231316846      -0.50443879546482
H         1.23096314738728      -0.67884078900297       0.64699189349026
H        -3.12761909372518       0.01330602639566       0.69989159856592
H        -1.38687553954512      -0.23420337878786       0.48424325204685
H         0.85839134633271       2.62273946801227       0.16212002617712
H         1.07989969806546       0.64554710510003       3.91941254381254
H        -1.57434935237359       1.30516044001948       3.37259755680555
H         2.41878150822318      -2.79904353632904       1.26709563404079
H         3.67652538557055      -2.44059949686063       0.07595791593191
H        -3.48598755936366      -0.41846974065333      -1.74534016360673
H        -1.74375036040803      -0.61952455624361      -1.97059827412794
H         1.95080470194550      -2.49800380419265      -1.77138777914951
H         0.68327103902844      -2.84141131507707      -0.57203997590963
H         1.97150373127531      -4.03232967757473      -0.86951122966736
H        -3.50735804546779      -2.40699562693936      -0.17106182772652
H        -1.75753991955565      -2.61062133691427      -0.42409357964989
H        -2.88491678868891      -2.85212446311921      -1.77836832930092
C         1.18950310987133       4.93499770224106       0.67134705899592
O         0.15872776634369       4.66621200409134      -0.00189161327015
O         2.23762059840741       4.26730277667703       0.84225244326066
C         1.10398663594175       6.28951291647869       1.44831243326700
F         2.26060661148938       6.62660012393481       2.08475822003086
F         0.12666277601844       6.21662124114949       2.41993521227192
F         0.77385062651217       7.33596580574292       0.63364266798474
