20
C6H8BF4N optimized with ForceField in AMS.
N        -0.73194281866180      -0.01795932940720      -0.00316544798593
C        -0.03688484871691       1.14266636447075      -0.20164255823350
C        -0.07298109543280      -1.21110996025964       0.11640607469088
C        -2.19327564985640       0.03470544270802       0.07992724808694
C         1.35730479337342       1.12765684597764      -0.28999146654171
C         1.32114145354232      -1.26107515039196       0.03538058608468
C         2.03785738634197      -0.08309150619729      -0.17033162991845
H        -0.55993191649268       2.08725598576012      -0.29453880653662
H        -0.61976219786493      -2.13294710675942       0.27499743068633
H        -2.63384746608416      -0.97537714167011       0.22720224572343
H        -2.49738908555932       0.67550592094806       0.93503887997406
H        -2.60825254090479       0.46039438293161      -0.85887740642844
H         1.90456376037300       2.04774787446687      -0.44845855621313
H         1.84042418671608      -2.20586759726242       0.12956849294096
H         3.11745286794215      -0.10832101244510      -0.23629578031944
B         2.67261652575386       1.51144023474173       3.39267207982000
F         1.57005163199221       2.23386017858822       2.86380058861887
F         2.23333168696561       0.23622699699424       3.83774318698097
F         3.22838810739960       2.22899877534309       4.48533817796201
F         3.65926102177357       1.34704349086277       2.38441053930808
