38
C10H19F6N2P optimized with ADF in AMS.
N         0.35099408222566      -1.83924477457936      -0.02900149965403
N        -1.73976151098557      -1.27792098396092       0.09406980672398
C         1.76114183787146      -1.99980316893617       0.35622500601847
C         2.61249469983481      -0.79439648211685      -0.03334687693556
C        -2.99064334891428      -0.73081323183778       0.64135196949212
C        -0.55400809595296      -1.18168371632749       0.70543761276557
C         2.23014905109791       0.49357792002687       0.69674949181594
C        -0.27139219484100      -2.36157639201708      -1.14733523744627
C        -1.58833711079729      -2.00816493047526      -1.06908848799159
C        -3.21837387509043       0.72218408197808       0.23140817425894
C         3.20341352203166       1.63275547351966       0.40501806469171
C        -2.15675232064429       1.67893631551137       0.76861911600386
H         1.76377364563936      -2.15377783202295       1.44675254300537
H         2.11483781249839      -2.92150819867023      -0.12749698092130
H         2.56825388591765      -0.64427903782040      -1.12784061589039
H         3.65803830007838      -1.05603586577658       0.20911214197182
H        -2.91256582190466      -0.83154018420375       1.73445676712332
H        -3.80043593935416      -1.38589122844036       0.28847531988994
H        -0.37335444596123      -0.69832209235804       1.65921420271165
H         1.21517217627273       0.80521617087015       0.39527975881148
H         2.18559940036269       0.29821628956855       1.78270498650936
H         0.26416467052324      -2.95827663760691      -1.87482988615461
H        -2.42614219864926      -2.23440146842925      -1.71672408024622
H        -3.28464738775494       0.78970024549271      -0.86926581567239
H        -4.21011602784953       1.00288833426618       0.62608087287579
H         3.23998304260356       1.86019696482077      -0.67228619680387
H         4.22261064530178       1.37096206262449       0.72916599348280
H         2.90663864921489       2.54912046536768       0.93576032207303
H        -1.16910208410708       1.47722074511018       0.32666401384003
H        -2.06208132512653       1.59064966083421       1.86131987586892
H        -2.41508263105802       2.71979807400467       0.52421982808606
P        -0.68330297782441      -1.57724236934317       4.22539987080542
F        -0.01605374778273      -2.88794061254199       4.93262764894323
F         0.74691684166720      -1.31458557040429       3.35766866537926
F        -1.21921444944725      -2.53286804824152       2.95406456797265
F        -1.32868352819288      -0.23728594553776       3.40972775540287
F        -2.11224676923066      -1.79619350247202       4.98760472054643
F        -0.13950825237223      -0.58704219307546       5.40356210444622
