51
C13H24F6N2O4S2 optimized with DFTB in AMS.
N        -0.30958194207674      -0.59561394708214       0.74149724964465
C        -0.95455670846658      -1.48077593811904      -0.28032489011094
C        -1.14020388532030      -0.81735389090291       1.97227470789683
C         1.10703509297760      -1.01937749133222       0.99397114979646
C        -2.45218091506612      -1.39320643267209      -0.00800378599285
C        -2.56892630476318      -1.03621331919555       1.48123580294349
C        -0.40542918088819       0.83872737604824       0.29430123860830
C         2.01314087281015      -0.89558829674081      -0.22749997158164
C         0.35903366387691       1.83674312437548       1.16300849920225
C         3.42219466833073      -1.38794538569642       0.12771056835474
C         0.03666112651238       3.25675712024270       0.70003449303528
C         4.33759989101206      -1.35534951855961      -1.09319940112562
H        -0.67772275187871      -1.15614734979063      -1.28300331464417
H        -0.58714772424056      -2.49581421895928      -0.11348313306077
H        -0.75095437865936      -1.69821922262507       2.48637922262783
H        -1.04866605472616       0.04166688544295       2.63207876146058
H         1.06541674206670      -2.06114331836996       1.32002895487143
H         1.48324771708515      -0.41820583230249       1.82671186651249
H        -2.91423331325347      -0.62396667570293      -0.63041563030426
H        -2.93147655006629      -2.34667998481999      -0.23493118867582
H        -3.03788701589244      -1.84151418387379       2.04867095426665
H        -3.16955923709297      -0.13450004812945       1.61520044808942
H        -0.03542581615662       0.88131561579715      -0.73342744984118
H        -1.46860218495671       1.09101518074852       0.28441935129040
H         1.61511647268765      -1.49319240068619      -1.05400942259987
H         2.07156962993739       0.14398260314395      -0.56058460390338
H         0.08430765485184       1.73266563751983       2.21356294460652
H         1.43494213932669       1.66915304768763       1.08030595154989
H         3.83898138297946      -0.75254259699763       0.91344071973796
H         3.36356884282850      -2.40898314598023       0.51708443648027
H         0.32026123086310       3.39788362447385      -0.34379785070805
H        -1.02911071137773       3.46308741808859       0.80469260159264
H         0.59006562413158       3.96824422280912       1.31110579921119
H         5.33312283378104      -1.69861769777564      -0.81368054547993
H         3.95370631821037      -2.00405990216019      -1.88227278380763
H         4.41735036642656      -0.34036288794462      -1.48466714899411
N         1.97709680107640       0.49240144205829       3.71802559626539
S         3.41938362542264      -0.13212742863463       4.07240813244245
S         0.74089344825706       0.14695097308375       4.67984963193296
C         3.32696222382391      -2.00959042215942       4.06730218211259
C         1.06929062782000       0.53434563128452       6.48975160018952
O         4.25614745661505       0.16368268137322       2.93589739723329
O         3.89358076782473       0.20025876006994       5.38901050070023
O         0.38087272359598      -1.25960358871028       4.64706511345395
O        -0.30912961139141       1.08161408201852       4.31359512888830
F         4.53561851412479      -2.49193971038663       3.82877995008336
F         2.51912807463211      -2.42557647945904       3.08568415600765
F         2.88890031961040      -2.48772629091649       5.21166621228213
F        -0.10810548779198       0.65348156532786       7.08243033959146
F         1.72540790066758       1.67117791838243       6.60458973376335
F         1.74283741179902      -0.43786610069117       7.06528145110429
