35
C9H20BF4N optimized with DFTB in AMS.
N         0.08997007129645       0.07416453989256      -0.04100441705653
C        -0.67223625181565      -0.83244202912452      -0.97083194869166
C        -0.90317577869760       0.54056696107761       0.99747055141214
C        -2.13672253034923      -0.47584396072159      -0.77466340679927
C        -2.19977183565371      -0.21315210930121       0.72668300181444
C         1.20057447953266      -0.69468438217908       0.63308993926695
C         0.61591698042983       1.24892515201501      -0.83270254167152
C         2.15415383545439      -1.41584055829829      -0.31780878578709
C         1.16039071387844       2.39641681173479       0.00293861591456
C         3.18393056275066      -2.18287192374529       0.51190215545604
H        -0.49952711383737      -1.86489888028400      -0.66140711960752
H        -0.31275280371543      -0.69652312830435      -1.98998344054044
H        -1.05837679443550       1.61201252298646       0.87240147853059
H        -0.49983862562174       0.35729242124605       1.99294319220302
H        -2.78744544315271      -1.29324563931648      -1.08589407401301
H        -2.40102872150696       0.42376292086101      -1.33619843107089
H        -3.06701759124678       0.38248155898492       1.01299282906736
H        -2.22195702487958      -1.15753631680390       1.27663618956362
H         0.71149161255575      -1.41819849582387       1.29283665239290
H         1.76458532440058       0.01654068098071       1.23933622176411
H         1.41018482052062       0.86362467812924      -1.47338936814868
H        -0.21238024392473       1.59616585252344      -1.45708833035394
H         1.61119205112242      -2.11118936655491      -0.96513816787883
H         2.68357720405088      -0.69630437288748      -0.94433205929848
H         0.36998235248097       2.99282436662220       0.45823374430957
H         1.84216854006536       2.04440743044077       0.77266696513838
H         1.73279965193413       3.03297708297572      -0.67081323818745
H         3.73352677849742      -1.49086732974733       1.14806421761731
H         2.70141375073412      -2.94110552811129       1.13173296912360
H         3.89298262678582      -2.66666267851345      -0.15773064851993
B         4.36248170839837       1.07278856547789      -0.13499017556924
F         5.22471397755832       2.12988074992441      -0.01276469713661
F         3.58653915996958       0.92566349442167       1.06168462922192
F         5.00587534167929      -0.13217858797157      -0.38807896454632
F         3.42448404844099       1.31440957209416      -1.18711736321913
