41
C11H22F3NO3S optimized with ADF in AMS.
N         0.70312293674759       0.05831799729936      -0.14280046876093
C         0.24526696038724       1.18502656286908      -1.06117361904874
C        -0.46279108484190      -0.85941499900381       0.15463648343271
C         1.77790834066307      -0.71224536879118      -0.90417361290423
C        -0.95343814466696       1.93880085534499      -0.51396347328077
C        -1.67233692879640      -0.12726833184614       0.71577306524282
C        -2.12135378679605       0.99992758724510      -0.21395561800656
C         1.27801551063438       0.63205449369765       1.11844125000443
C         2.50612592644425      -1.78591914334797      -0.11952809088301
C         3.59928600182922      -2.39697520626676      -1.00383480077090
C         4.35909091224291      -3.50288350327713      -0.27964549160295
H        -0.01043115992759       0.69425487560792      -2.01426128461310
H         1.12706717413205       1.82435027852457      -1.23753383755374
H        -0.09800095111800      -1.63293169965017       0.84431227078878
H        -0.71762777175847      -1.33827832146277      -0.80449778971695
H         2.48884876059927       0.04285329227953      -1.26976853908831
H         1.26257029435685      -1.14267157112960      -1.77817651070718
H        -1.23483238224779       2.68676997831444      -1.27256819321130
H        -0.67402149856002       2.51119819419433       0.38617252685583
H        -1.45051675097690       0.26742896578497       1.72120496790541
H        -2.47499308864982      -0.87196981965057       0.84578498510760
H        -2.96011059335333       1.55404180504150       0.23612145341091
H        -2.49210032625074       0.56465013657386      -1.16040566354413
H         0.52810863902512       1.26964883717924       1.59509310176136
H         1.53530147267144      -0.19398308439865       1.79054547420043
H         2.17075235925784       1.22851576256167       0.85878166504388
H         1.82077106201144      -2.58008940398885       0.22840194681437
H         3.00051471106652      -1.34655150835195       0.76185447371199
H         4.28930174338896      -1.58737063427208      -1.29625551261311
H         3.14964305991265      -2.79566135512464      -1.93149260950447
H         3.69343542373878      -4.33870713504160      -0.00747228857825
H         4.81838262089552      -3.11869541333992       0.64533636363766
H         5.16489457009046      -3.90212524039773      -0.91250662859127
S         4.13947278106008       2.04880541649132      -1.12137936988957
O         3.70295182140889       2.46460971702233       0.23139855143950
O         3.08294847449056       2.17792577128289      -2.15282185702715
O         4.90013899787219       0.78856380209336      -1.17185159152212
C         5.39908500255349       3.35699517644051      -1.59886440175704
F         6.44010161978559       3.36605069576429      -0.72584402544890
F         4.84527724414975       4.59958544761873      -1.60120229658984
F         5.89348169162787       3.11670230580987      -2.84150673104316
