31
C9H20ClN optimized with ADF in AMS.
N        -0.19164729483939      -0.04615804704392       0.07847486883177
C        -0.65972505121557      -1.25141540434016      -0.72481016126055
C        -1.14215487441219      -0.06745492757134       1.26583894508219
C        -2.18155087744658      -1.23165752275135      -0.62618546140814
C        -2.49529900098636      -0.50541795141739       0.70634339743346
C         1.22685547176046      -0.24291696002967       0.56784408685217
C        -0.36547957532749       1.20653026923695      -0.74485154213601
C         2.25948372545415      -0.33059023940709      -0.54002457201038
C         0.14369277578138       2.47265739141850      -0.08445641817707
C         3.62963555612019      -0.63802608655230       0.06525636127387
H        -0.26205891866250      -2.12765842304909      -0.16790392098951
H        -0.26166112685786      -1.17740722477279      -1.74489434427222
H        -1.13160844848224       0.91534264071278       1.75354503040923
H        -0.74135954033268      -0.86594522736954       1.92499451591312
H        -2.54828180199155      -2.26829686166004      -0.61473265283676
H        -2.64676685759807      -0.71609346359103      -1.48063937706580
H        -3.18008824865401       0.34128808164335       0.54777701562558
H        -2.96082704747259      -1.19161708993725       1.42858670530151
H         1.17794222372062      -1.19426659682716       1.14630764730327
H         1.44216220410521       0.58491838564990       1.26125200802674
H         0.15747794525509       1.02829712364564      -1.69631757375897
H        -1.44085740468221       1.28145666305038      -0.96255287879508
H         1.98679978967564      -1.14373820616001      -1.23365421434504
H         2.31368143358881       0.60299351154215      -1.12804861657270
H        -0.31560410028755       2.64410771742030       0.89940518665836
H         1.23592323230684       2.46383969158267       0.03436635289452
H        -0.11832395404990       3.32847610592020      -0.72453140415121
H         3.94565220726945       0.15847455660384       0.75741729535477
H         3.59540553628924      -1.58376626254837       0.62678380193259
H         4.39256040605234      -0.72746323070240      -0.72154025837004
Cl        0.05010735591934      -3.05412131549577       1.91009074465636
