23
C7H8F3NO3S optimized with ADF in AMS.
N         0.92495516510246      -0.28239601562373      -0.52466198033158
C         1.34907220900246       0.99918216530591      -0.46531744920208
C         1.21519378759680      -1.15436777487520       0.46287323087291
C         0.35479676266535      -0.77134515094448      -1.78864952573499
C         1.99207947635979       1.47526712434506       0.66004279876439
C         1.86040468752030      -0.72613100198976       1.60962718593787
C         2.25497029928847       0.60201403820194       1.71077787017796
H         1.15517391848533       1.60851880991201      -1.34431312016627
H         0.91097572002634      -2.18421442652615       0.30246526879815
H        -0.05468052682147      -1.77355230563102      -1.63185579591713
H        -0.43573085352349      -0.08299493670754      -2.11195961886496
H         1.17831364038968      -0.80744358637767      -2.51526073405116
H         2.33061720263511       2.51010815061950       0.67740605996789
H         2.08760491763932      -1.45196064281259       2.38886135680643
H         2.79844503184768       0.94851061630978       2.59058063685851
S         3.99086168890975      -1.11114223965678      -1.73657221006493
O         3.33655009024442       0.18011628667059      -2.06520269254165
O         4.93210337010368      -1.61715349734402      -2.73127388431293
O         3.05828337480803      -2.11359254544487      -1.16389800822882
C         5.11274922844436      -0.66210064271098      -0.24079578809357
F         4.83867174450703      -1.44567149094935       0.84492750591085
F         4.93330651509588       0.63541927916711       0.15479912913014
F         6.42173925017270      -0.81797770003774      -0.53712059281504
