41
C11H21F6N2P optimized with DFTB in AMS.
N        -1.18507897237931      -2.02560091284223       0.38597974958958
N         0.96706267683494      -1.98909277730376       0.29858368524300
C        -2.56939304315297      -1.62155260928639       0.60899109482365
C         2.35056104370055      -1.53833742249694       0.40951167121336
C        -3.04052050960461      -0.66438475805560      -0.49362069596016
C         2.70077645090418      -0.57625671049273      -0.73292682978279
C        -0.10188301005124      -1.35922470675189       0.78676856992180
C        -0.80098265677780      -3.07478317707451      -0.40080258371067
C         0.55613999911385      -3.05178179754831      -0.45610305158446
C        -2.48144577128071       0.74948640302503      -0.31699794852631
C         2.11863197106980       0.82251239676890      -0.51430939037749
C        -2.93968747048086       1.66346482438859      -1.45141174915596
C         2.46771902253713       1.74680068993311      -1.67881726926414
H        -3.17570104963546      -2.53084802611925       0.60750019603313
H        -2.63429918416091      -1.15167116621520       1.59504326411640
H         2.47594645459233      -1.05709602693646       1.38415066368670
H         2.98487018519740      -2.42735319721358       0.36741128034887
H        -4.13370696139343      -0.63518054499824      -0.45710834851108
H        -2.74150407526509      -1.06397893645255      -1.46523010357766
H         2.33085689753773      -0.98987379386688      -1.67401202639320
H         3.79158677163765      -0.51659601267659      -0.79037300310132
H        -0.08965635989502      -0.49629055107803       1.42832446124635
H        -1.51348986634800      -3.72684182118506      -0.87256166645525
H         1.24922870356030      -3.67985186725725      -0.98623090745768
H        -2.80938918557538       1.15569836552869       0.64745163082544
H        -1.38828740562908       0.70834515588022      -0.31218225548746
H         1.03023158791306       0.75209674620726      -0.42909072652884
H         2.50533166358906       1.23822680655872       0.42406230160558
H        -4.02850498398303       1.72687757009760      -1.47749659769807
H        -2.58740922183373       1.27938351359819      -2.40802352476641
H        -2.53413391249422       2.66476293041293      -1.30574362935051
H         2.04926114495872       1.35571061090321      -2.60546972938859
H         3.54954357284068       1.83270450042465      -1.79036353843849
H         2.05437888525041       2.73937773815541      -1.49961499094585
P        -0.27729771902299      -1.20979159230683      -3.43324184917560
F        -0.22811209817399      -0.54715531775594      -1.88697170729475
F        -1.48764963194428      -0.17352301685689      -3.81650275797584
F         0.85133124295938      -0.12436635620082      -3.91241087458963
F        -0.32399413173323      -1.88880621772079      -4.90666224829467
F         0.93448388134814      -2.25897263062762      -2.96862141492482
F        -1.40227928202995      -2.30808319936216      -2.87212684443617
