49
C13H28F3NO3S optimized with ADF in AMS.
N        -0.45354145822127       0.20670178112219      -0.55899796792310
C        -1.30856752730933       0.50052514817539       0.66176067019673
C        -1.24545309171779       0.42813452731648      -1.84608785425543
C        -0.03526353973577      -1.26377408729395      -0.52115865673129
C         0.74831055501568       1.12978079048979      -0.55203354580979
C        -2.63689032291496      -0.23444257096301       0.72340260936494
C        -1.87493610808324       1.79840408331649      -2.01436956479867
C         1.01186628574392      -1.66748123099355      -1.54452804463079
C         1.71047876011306       0.97147401225871       0.61604486493781
C        -3.36063934854158       0.11919428316329       2.02190405869863
C        -2.64909638038782       1.81245447606130      -3.33624624569333
C         1.23304925669415      -3.17902538944645      -1.45886048272964
C         2.90347258764453       1.91243597902542       0.43493331244164
H        -1.46316845579045       1.59048832363036       0.67753133136716
H        -0.69230459212795       0.23702452929424       1.53345000623685
H        -2.00422999231365      -0.36939784437528      -1.87274780179327
H        -0.54812594417948       0.21816123430262      -2.66729529309342
H        -0.96065040054074      -1.83204482139257      -0.70092991636420
H         0.31458416253751      -1.45958047154122       0.50421959435604
H         0.34739556171154       2.15334255540872      -0.56990919914856
H         1.26919187719014       0.95847688457809      -1.50497097034091
H        -3.26778247823322       0.02650774592204      -0.13822689779651
H        -2.48609668673658      -1.32157429516885       0.66456552954743
H        -2.57061695241016       2.01452474158209      -1.18681651569902
H        -1.11576287392462       2.59870035725555      -2.02827261761220
H         0.65365263341128      -1.43626251688281      -2.55942350837466
H         1.96403958244444      -1.13846314182123      -1.36932868052679
H         1.20766505436365       1.20663678820692       1.56702315941406
H         2.07153834671788      -0.06667824809664       0.68170972216265
H        -4.31801413502059      -0.41731179469387       2.07730115410262
H        -2.76586793627990      -0.16446887871007       2.90479709845221
H        -3.57496619600321       1.19840016856878       2.08572213372722
H        -3.14000337035883       2.78425676775932      -3.48820423700628
H        -1.97682645896356       1.62604896785431      -4.18757509179728
H        -3.41596535047944       1.02286248209778      -3.34775916806789
H         2.02815438691966      -3.48390072181757      -2.15419560539398
H         1.53113936668905      -3.48573700186019      -0.44265579804918
H         0.31522249307040      -3.71830354701573      -1.73881066592080
H         3.60308586462314       1.81811410281297       1.27761407777861
H         3.45602679375486       1.68149820226533      -0.48942916824360
H         2.57973237487251       2.96386639086607       0.38299624443859
S        -2.46867896007499      -2.90424856897872      -2.96665447624186
O        -2.94704528433181      -2.22145934328580      -1.73152838484437
O        -2.16519946594827      -4.32910515666457      -2.80758962587498
O        -1.48725171483367      -2.10703101087044      -3.73089482346009
C        -3.99014371087393      -2.87963494473517      -4.06306314470971
F        -4.39514442146291      -1.59582213969560      -4.30274855393644
F        -5.02863685838054      -3.53769861037313      -3.48492299720849
F        -3.73976377243713      -3.46356589415784      -5.26243647514664
