42
C10H18F6N2O4S2 optimized with DFTB in AMS.
N         2.05392736531163       0.08359350478126       0.08505174104828
C         2.26323165212824       1.50048840130234      -0.37159679526751
C         1.77715960690625      -0.78448105468756      -1.10477469975199
C         1.08731301046471       2.04609351123111      -1.16860071483408
C         0.60809203507996      -0.28461251342693      -1.94524914669559
C         3.33825775609055      -0.34240726123114       0.75832077760667
C         0.80880827798043       1.16444805135812      -2.38385739871665
C         0.94452951202482       0.00647744540754       1.06990016826772
C         3.44678931665295      -1.82422974334709       1.06918512983236
H         3.16187546893382       1.49949823859324      -0.99259215153276
H         2.45084502953753       2.10473382978443       0.51853758287116
H         1.56855369111990      -1.79129737499010      -0.73900276358160
H         2.69298147206479      -0.80395914501612      -1.69834056288548
H         1.35817215244933       3.05279642939253      -1.49677350563185
H         0.19304994378281       2.13025996077179      -0.54374708967145
H        -0.33227658211717      -0.38620630940904      -1.39472467011550
H         0.54806715117465      -0.92946240574180      -2.82569527378565
H         4.14714937170830      -0.06073458124780       0.08479196164012
H         3.42018715679589       0.25194898803063       1.67126971101066
H        -0.08527045669248       1.51840666787894      -2.90233813857402
H         1.65098558946462       1.22268585088064      -3.07744935321474
H         0.01576243777007       0.33790019978419       0.61359440046212
H         0.83572512253586      -1.02368879413346       1.40195172721499
H         1.18374018413271       0.64561325182171       1.91797389227170
H         4.37229516545747      -1.96257793312159       1.62790446958850
H         2.61788202371748      -2.19001295657626       1.67405304975726
H         3.52131406418132      -2.41191750784355       0.15570509295287
N         6.78219542402424       0.33442750056658      -2.52830122158503
S         6.67214850154454       1.18721079939976      -1.17465838736153
S         5.61819731312201      -0.70340031427663      -2.84931055289253
C         7.30559540738198       0.05667510234559       0.19231564071859
C         4.35133716088460       0.24502397425477      -3.85672660750336
O         7.63664814769348       2.24578842247530      -1.24833904578734
O         5.32305691925586       1.52895134252871      -0.74298155929610
O         4.83731816626152      -1.17241064601681      -1.71045595995242
O         6.11360232925872      -1.68450741197870      -3.77036837845134
F         7.89028099835415      -1.01455593776540      -0.31111606637351
F         6.29122006255050      -0.33944321511118       0.96347131239349
F         8.17050390038369       0.70684094943855       0.94972696433972
F         3.25280278005221      -0.50486113395272      -3.99020955265147
F         4.80321171225113       0.55057047568244      -5.05568938864165
F         3.98513818202491       1.36781728586369      -3.23916125022113
