34
C8H18F6NP optimized with ADF in AMS.
N        -0.37737991192111      -0.28819542449917      -0.04946680735776
C         0.87328013585621      -0.72194151110003      -0.81998540007415
C         0.13687111763006       0.63724345672816       1.05643827871977
C         1.98199248357225       0.20987471738456      -0.35511336383309
C         1.63389387941475       0.38660454154743       1.12488563997349
C        -1.04300745020444      -1.50669148767601       0.59357096326940
C        -1.33992272357407       0.45686299593453      -0.97900946564100
C        -1.39272086847873      -2.62036566666081      -0.36780430963770
C        -2.31629407826965       1.38502332743119      -0.28217724281445
H         0.65468635333754      -0.71081549871222      -1.89514669990925
H         1.09629411079857      -1.75257142216706      -0.51593842804766
H        -0.43504249734344       0.43855869482199       1.97182885010004
H        -0.05653337568175       1.66761704443720       0.73495629892875
H         1.93667257969606       1.17919124884568      -0.87941462820970
H         2.97504759721733      -0.22752379568921      -0.53143487103920
H         1.86111795141432      -0.53355006894294       1.68893430719131
H         2.15957810637231       1.22166719657170       1.60959761824449
H        -0.31659266371090      -1.84949015745564       1.34963355573036
H        -1.94267597496823      -1.13934685326888       1.10616614613088
H        -0.69632306472455       1.00958589087405      -1.68170574292417
H        -1.87356588946656      -0.32670479278172      -1.53114047912001
H        -1.88830163159568      -3.39877998968501       0.23069353162301
H        -2.13889444382056      -2.30832013032288      -1.10931544225581
H        -0.51847860318549      -3.06403464096693      -0.86687407133272
H        -3.15230096413490       1.57076849345613      -0.97209952204777
H        -2.76535842067340       0.93323947395322       0.61242751869649
H        -1.86298512900143       2.35494467013347      -0.03179040073867
P        -4.86522173989320      -1.32054050230828       1.21147233334291
F        -3.94598184093513      -2.68279515779698       1.47326261353667
F        -5.62260405206604      -1.53214392309288       2.64394427005670
F        -3.65427208037622      -0.42340534629192       1.99781666644759
F        -5.68224252732775       0.07860367035304       0.93561326129282
F        -4.03033151518012      -1.08527286534630      -0.23459972725922
F        -5.99090867727604      -2.19918914200750       0.41687233485767
