29
C9H12F3NO3S optimized with ForceField in AMS.
N        -0.47568671911664      -0.04785516339088      -0.42211280378132
C         0.95789284908274      -0.04250142004854      -0.73724305574721
C         1.78032964775615      -0.00056266213427       0.55378761862420
C         3.27627729779830       0.00990466696857       0.25688764293864
C        -1.16409668194063       1.13310022535411      -0.36521714004743
C        -1.10926454241739      -1.23296391448649      -0.16378709864526
C        -2.52393756868674       1.14648232448212      -0.04642029904540
C        -2.46884632462559      -1.25483307115298       0.15685978909431
C        -3.17740921814839      -0.05609584643700       0.21602744343992
H         1.22291255568122      -0.94867863361016      -1.32716292964347
H         1.21139525514121       0.83761826588990      -1.37023378486161
H         1.54081995207964      -0.88943946503319       1.17680158732641
H         1.51828234969595       0.91338435366771       1.13016311603759
H         3.56484594322433      -0.90548952133896      -0.30254575583228
H         3.84327044452838       0.03709164135905       1.21110135253434
H         3.54422595877380       0.90647325475334      -0.34183553234701
H        -0.66192186180406       2.07386288494378      -0.55729169042604
H        -0.56383389294380      -2.16864953017411      -0.20141947459102
H        -3.06392508120282       2.08302263376700       0.00249856739367
H        -2.96727075593030      -2.19382905600847       0.35957627692807
H        -4.23030609936720      -0.05881398310300       0.46645450341203
S        -1.46400594009975       2.82012902224222       3.38117297629592
O        -0.85427241948480       3.35392795699899       2.07688259695544
O        -2.90162469871434       2.46387272737431       2.97537629500272
O        -1.64631019896503       4.09077697562607       4.22426051195950
C        -0.53185499609108       1.48585357200845       4.18484045167876
F         0.74660263258256       1.92356422235033       4.47122401322677
F        -0.46567682510728       0.39460995944751       3.34037163289637
F        -1.16551372219846       1.12205817768456       5.35721897972337
