26
C8H14N2O2 optimized with ADF in AMS.
N        -0.11643690663238       0.41113302362797      -0.41271383025690
N         1.95886761439721      -0.09055651705562      -0.02328257310328
C        -1.55385196669103       0.27336890436018      -0.65106470675975
C         0.74514073758582      -0.60814980848124      -0.24819245590927
C         0.58398142723491       1.59691144325877      -0.27862372930676
C         1.89763783745619       1.29000601965832      -0.04422008052422
C        -2.34713229508268       0.14840823220033       0.64064073692424
C         3.21703599842717      -0.82710644700816       0.07151915355363
H        -1.86154741006020       1.15750164346736      -1.22812423419744
H        -1.69764305584626      -0.60377990874679      -1.30010986005867
H         0.49789558518294      -1.65971941635215      -0.30772746128353
H         0.09342143607108       2.55604168072392      -0.39500011039425
H         2.87387929518201       1.88742022540349      -0.02324469476218
H        -2.04148962660204      -0.74483505513287       1.20475898772667
H        -3.41929996574430       0.06164900867308       0.41068707363838
H        -2.19731490211546       1.03081641469277       1.27947435800120
H         3.02232390074569      -1.89104908002051      -0.10757509528048
H         3.87021398281436      -0.36705096292444      -0.71131147264757
H         3.64596890202493      -0.67371830771929       1.06960201095210
C         5.87008229774212       2.76435274316322      -2.13892222774349
C         4.74995548694633       2.01242523617569      -1.41201298578473
O         4.32746102578647       0.94280771925851      -1.94504032501133
O         4.34905161760674       2.52778890304064      -0.31480298963931
H         5.95144933964195       2.43345510466903      -3.18326923685557
H         5.70079518945619       3.84990210111028      -2.08935520116573
H         6.82596774657227       2.55853275125752      -1.63039939651177
