55
C15H32F6NP optimized with ForceField in AMS.
N        -1.08559969946301       0.82533635676902      -0.18092303543280
C        -1.55768071879840       1.87077818058267       0.78589023101361
C        -2.07188894703249       0.73623461791719      -1.30653834779280
C         0.21263134329008       1.28357674077193      -0.78578984257622
C        -0.93101697528386      -0.48947489331577       0.53543697410967
C        -3.00087852233550       1.65620598490679       1.28849958443124
C        -3.51550824596592       0.45494795580315      -0.85608370339123
C        -3.98290185147212       1.52116731212816       0.12842840957393
C         1.42296486207355       1.34835469154132       0.17857258882468
C        -0.35649044985809      -1.65396920155878      -0.30951527520004
C         2.66164563335998       1.88651101404018      -0.55021993553237
C        -0.21743655138066      -2.92215124783373       0.54381921941761
C         3.88764912092140       1.89837295576190       0.36995190961852
C         0.35949061271220      -4.08183359236419      -0.27665800673324
C         5.11870675393315       2.42645881433899      -0.36016438812888
C         0.47722852046222      -5.34704074016751       0.56778206674020
H        -1.51543505340410       2.88231411153441       0.31933343216647
H        -0.90515868605141       1.90752559649240       1.68457509454011
H        -1.77306177172347      -0.03005930014212      -2.05165701919263
H        -2.09249510377355       1.69823547828504      -1.87172490144924
H         0.08519052277207       2.29862244062962      -1.22910029181591
H         0.49007418295184       0.63235670716629      -1.64436345426849
H        -1.90136024718077      -0.83652266337046       0.93967537507811
H        -0.29191956573668      -0.35933406696406       1.43599842170720
H        -3.30054083407317       2.53126704052969       1.90584346115136
H        -3.06317625353269       0.76571265577926       1.94816837772383
H        -3.61089826207681      -0.55709420208854      -0.41231364809323
H        -4.18112622530275       0.47623070415360      -1.74622257459530
H        -4.07029401457396       2.49752805391790      -0.39741306603300
H        -4.98662452673991       1.25007162295530       0.52038437649480
H         1.20456571974096       2.01737066502861       1.03392669845097
H         1.66485087627646       0.33878706592044       0.56971321705271
H        -1.03144379043452      -1.88569475863530      -1.15832446070575
H         0.64541799261494      -1.39772502417105      -0.70954808159193
H         2.45820630778167       2.92129035633727      -0.90475595139561
H         2.87598798520696       1.24612960891974      -1.43429530797234
H         0.45397081586101      -2.71563258988244       1.40650846164846
H        -1.21689447836192      -3.21267651644276       0.93716919032973
H         4.09877363868698       0.86764969947563       0.72874685567257
H         3.69099557308554       2.54440191609927       1.25168681999055
H         1.36821451145039      -3.80791831521215      -0.65547041842093
H        -0.29918328278103      -4.29168605433659      -1.14750598643588
H         5.98530165916233       2.43671879208637       0.33420359540867
H         5.36403367252728       1.77345741799501      -1.22509948159246
H         4.93981835979143       3.46216081329564      -0.72099260428081
H         0.90010332032775      -6.16745389328843      -0.04946346320253
H         1.14939553903642      -5.17094444081055       1.43465486383911
H        -0.52335348768343      -5.65879178898559       0.93664252252197
P         1.45771355184768       5.65802715119717       2.42645247111422
F         1.59238105776932       5.66216119559913       0.71375888661766
F         3.10672463330640       6.13678179488254       2.48145372235749
F         0.98191428538316       7.30691041406648       2.49835824361375
F         1.30688087430893       5.63585485764429       4.13753575015383
F        -0.17439475763415       5.17104613813943       2.20158733684936
F         1.94454242841226       4.01765885147818       2.55679923232123
