34
C10H22ClN optimized with ADF in AMS.
N        -0.04481447805642       0.04828016039469      -0.02500607652250
C        -0.89335306032085       0.70258283107778      -1.10921910530980
C        -0.62091318675388      -1.31343124842120       0.29648364717760
C         1.35192386597707      -0.11187072836513      -0.61125327890151
C        -2.35704007654619       0.79211721384059      -0.72729459054049
C        -2.09412789230257      -1.27298261589181       0.67873106043081
C        -0.01242160944904       0.88451198170636       1.24579309939926
C        -2.93594295650301      -0.58597586615594      -0.39827689502750
C         2.40475825641887      -0.63798722136678       0.34535389292545
C         0.60579650588500       2.25771772731047       1.10749817857739
C         3.71361366355204      -0.82674115554189      -0.42599200850569
H        -0.76873157025135       0.05156928453997      -1.99123830027462
H        -0.39490842675081       1.66610432221705      -1.36919674474160
H        -0.00857986499871      -1.74879037448201       1.09816650638331
H        -0.47950681305202      -1.91423895844312      -0.61672181257905
H         1.61394965957982       0.88757755236634      -1.04382115607791
H         1.22252697135998      -0.80434303644415      -1.46020561304952
H        -2.88453058047274       1.24451604711991      -1.58332494459340
H        -2.50297894573191       1.48710509188906       0.11800911139111
H        -2.22482625990528      -0.76598695500160       1.64987866175644
H        -2.42030288032223      -2.31579920967076       0.83104689774088
H        -1.05255463371047       0.96487237305079       1.58367078461437
H         0.52687941635060       0.26976166853552       1.98259829874115
H        -3.98512319439249      -0.50835955606488      -0.06912143239561
H        -2.92885739611748      -1.20667764717225      -1.31401981374612
H         2.57516642222708       0.07978855539811       1.16449961215707
H         2.10858677761532      -1.59933614352921       0.80255719598806
H         0.54510699698015       2.74661136613416       2.09312747528854
H         1.65601397613582       2.22742419698062       0.78888514625577
H         0.09759189342557       2.88333815213044       0.36038233126815
H         4.51597262713118      -1.17107814202183       0.24257028396937
H         3.59344626597796      -1.57288658516414      -1.22733077469382
H         4.02475768912998       0.12135262822857      -0.89067100702925
Cl        1.38875494349100       2.86186084741626      -2.06370412627636
