36
C10H19BF4N2 optimized with ForceField in AMS.
N         0.37383587059707      -1.60179397268023       0.31413494364012
N        -1.75257693702645      -0.95575681974807       0.24765902676561
C         1.76929423584099      -1.70702407929058       0.73438950279731
C         2.65402103103066      -0.73022190920043      -0.05148530762552
C        -2.99558481709774      -0.26747835858983       0.59008699754407
C        -0.61924513379359      -0.97631984273651       0.97547835055196
C         2.25600144806009       0.73175640845362       0.20190767340013
C        -0.15040224911835      -1.99876887645917      -0.86313802684465
C        -1.47144922545595      -1.60068635725163      -0.90308814011768
C        -3.22112279980284       0.94808005516108      -0.31870927919438
C         3.23600298544043       1.69644831224366      -0.45701748545957
C        -2.09467826441807       1.97412900035582      -0.19707649567384
H         1.85815271804807      -1.49300728200108       1.82230995650991
H         2.12531951661936      -2.74700203366336       0.56897134793610
H         2.58104414050495      -0.95574850549239      -1.13781926054305
H         3.70904873379762      -0.88544702036306       0.26244699053691
H        -2.96816879421725       0.06724125290739       1.65062919241422
H        -3.84718873662051      -0.97327164081356       0.48283108859896
H        -0.50251833929859      -0.49454259935439       1.93825993696109
H         1.24254578600012       0.92192809848066      -0.21077182925229
H         2.23493087557991       0.93477700155686       1.29462584126194
H         0.39465279841078      -2.51058310246876      -1.64548139363072
H        -2.16392080238239      -1.74060139068094      -1.72280169466055
H        -3.30491800917697       0.61762136840975      -1.37638544639889
H        -4.17914486904636       1.43369316165901      -0.03468144189327
H         3.28924195081117       1.50902777576923      -1.54991054056613
H         4.24746185961053       1.57854266203909      -0.01403988647267
H         2.89453510182807       2.74011374980486      -0.29179614885059
H        -1.14611068164557       1.55607670720298      -0.59362877452290
H        -1.95058654116444       2.27029370896696       0.86375292178343
H        -2.35051948047084       2.87837316693518      -0.78784838804375
B         0.54417386748344       1.83987695830192      -3.66771529494599
F         0.93989937694971       2.54335943577217      -4.83647528101848
F         1.45767014075845       0.78146581205753      -3.42067944455414
F        -0.75807913698163       1.30546852721443      -3.85458524333632
F         0.53708445534614       2.72929286440180      -2.56085579099643
