46
C12H28BF4N optimized with ADF in AMS.
N        -0.25505988379355       0.06226831996847       0.27983244828135
C        -1.33586593191626       0.71722683957364       1.14053220032909
C        -0.85595230380618      -0.62500718296572      -0.92888317443741
C         0.47409816369306      -0.97887290380716       1.12399742763432
C         0.70608769021133       1.14605121915201      -0.18853120301846
C        -2.46917010472748      -0.19172173229659       1.58685059259547
C        -1.70644122523850       0.24439215342145      -1.84333444586446
C         1.70387266327219      -1.61801623613973       0.49677379875906
C         1.53143142764558       1.80942046986294       0.90106930898007
C        -3.34746751592710       0.57350738007588       2.58138126985689
C        -2.26283858484267      -0.60299081355618      -2.98894586526634
C         2.39482548462075      -2.46535064084113       1.57128876807026
C         2.46326035533540       2.84938824367615       0.27827482985397
H        -1.72137837590204       1.56049858495186       0.54753166561417
H        -0.82174751109285       1.11721430241670       2.02646528331540
H        -1.45401806354702      -1.46104139440759      -0.53726833077978
H        -0.01192425437965      -1.05105109593312      -1.49094497706766
H        -0.27238597891698      -1.74910753000940       1.36018228810035
H         0.74177974083419      -0.48685440809713       2.06764524722081
H         0.08597964635812       1.89471888808178      -0.70260572220517
H         1.35483878850281       0.67405161781467      -0.94270553301183
H        -3.07617220426963      -0.53451525796586       0.73096755242031
H        -2.06440574871692      -1.07234393653562       2.10686945223833
H        -2.54216995001190       0.69069007236341      -1.28173166675341
H        -1.11094957429708       1.07161666559689      -2.26042058675593
H         1.44300690956023      -2.24972975390909      -0.36935542777655
H         2.41198850236347      -0.85050072616803       0.14492042892383
H         0.88523900458846       2.28627143919327       1.65248706033004
H         2.12321373631494       1.06914090524801       1.45830142895306
H        -4.18654088514872      -0.05467385718110       2.91300064075251
H        -2.75071675834768       0.84999119828857       3.46290383690398
H        -3.76429770665235       1.48987906964756       2.13286903675769
H        -2.87944388315608       0.01101090579869      -3.66089049865775
H        -1.45277216752469      -1.04771910938155      -3.58800914452061
H        -2.89245752661526      -1.42226588187680      -2.60809959671037
H         3.30936741273719      -2.92861674402265       1.17436808791677
H         2.65896483357951      -1.83951936261667       2.43733203753953
H         1.73213980699814      -3.26817932730892       1.93055319389838
H         3.05076312563517       3.34019064439995       1.06683495219422
H         3.17009678323736       2.39025189126076      -0.43213846954616
H         1.90249886825599       3.63155935365570      -0.25890385919303
B         0.47418413192546       0.64393621676232       4.37871927681917
F         1.71780369298554       0.28351378408375       3.74786809173013
F        -0.48680862582149      -0.37483048093594       4.06436651303379
F         0.01438770197716       1.87242407955345       3.78144235710493
F         0.63295420022003       0.78715509930815       5.75434312923707
