24
C6H15NO2 optimized with DFTB in AMS.
N         0.04491269354650      -0.17266647352298      -0.28987484471885
C        -1.09400176764090      -1.12851342776228      -0.26125304501399
C         1.13334157463402      -0.70662600709104       0.57598291946535
C        -0.38118536279559       1.15701517343913       0.21064254818753
C         0.52329235627098      -0.04823877633070      -1.69465467041342
H        -0.72011113519555      -2.08355036830529      -0.63735537779116
H        -1.44734195270129      -1.23200951880786       0.76307808266047
H        -1.89172657688236      -0.75278847378148      -0.89957147622589
H         2.04054045419092      -0.13500654901514       0.39968746479132
H         0.82258130910300      -0.63919573572601       1.61749447812913
H         1.30088308987277      -1.74274440806456       0.28713406277729
H         0.47297950071691       1.83103630720422       0.17927545946425
H        -1.17922162295947       1.53952404715548      -0.42351861427994
H        -0.73785622824111       1.05727048323018       1.23442598845517
H         1.47188703994748       0.48164136613836      -1.70202436563845
H         0.67285675705527      -1.05694113965016      -2.07599879856908
H        -0.22701201017692       0.48074395554606      -2.28059472491625
C         3.08335491839436      -3.93603947283546      -2.20487039770724
C         2.25631586689448      -2.76121053436062      -1.63815171699779
O         1.04694918697347      -3.00162802417625      -1.38909415191556
O         2.83941537387570      -1.67208132803089      -1.47119602139894
H         3.06424418695281      -4.75911938843406      -1.49186624221688
H         2.62859942140868      -4.27348438819021      -3.13518479082986
H         4.11027490525582      -3.62476388902846      -2.38467478259725
