66
C18H34F6N2O4S2 optimized with ForceField in AMS.
N        -0.01831604687823       1.98812779677842       0.00276013512481
C        -0.69095491904840       2.89484618528237      -0.97827743177839
C         0.63270643637570       2.90214847707977       0.99093975858919
C        -1.03522477498302       1.14295345415582       0.70965106228359
C         1.01770459640375       1.17104160051702      -0.70920323357919
C        -0.22785605932689       4.31336464163235      -0.70945492982172
C         0.10972608643134       4.30511484176822       0.75428185568958
C        -1.77931085665823       0.13149955617152      -0.19451040266091
C         1.78545749832925       0.17325194760335       0.19038709604238
C        -2.87326996180014      -0.59314325183318       0.60013751044472
C         2.88990548730950      -0.53031407587800      -0.60854684307808
C        -3.62683085268632      -1.59906514571848      -0.27808496466316
C         3.65836451223813      -1.52938879894995       0.26512925802514
C        -4.68962148378671      -2.34997339971992       0.53320806886170
C         4.72967610134638      -2.26419860046756      -0.54967222644104
C        -5.44349403787017      -3.35168204789638      -0.33715411757560
C         5.49584386978935      -3.26073081906547       0.31619539015319
H        -0.48542813058590       2.62706817398238      -2.04042010645529
H        -1.79911232215561       2.89268037075645      -0.86431419667384
H         0.45286496559249       2.60769216227303       2.05061995623132
H         1.73854551165980       2.94431856548501       0.86150433436518
H        -0.56317513772048       0.58113209658479       1.54564044596235
H        -1.79290447752741       1.80271399166444       1.19372292194096
H         0.55761398392764       0.60272198408525      -1.54744378221210
H         1.75979988810129       1.85055419677496      -1.19038517914987
H         0.68421999747010       4.53322670663260      -1.30496037147093
H        -1.01731004931051       5.05943967589581      -0.94610383887297
H        -0.81150506075615       4.47261677054583       1.35542065209918
H         0.86883053193611       5.07762822337955       1.00569670211123
H        -2.24393288038351       0.64800388734840      -1.06058728984061
H        -1.07070965749478      -0.63062004915479      -0.57998765857118
H         2.24346356918174       0.69851144140109       1.05486996556861
H         1.09361207225599      -0.60288834435997       0.57815234610516
H        -2.40551533456756      -1.12900419242012       1.45555645721208
H        -3.59346072318539       0.15361288376766       1.00166445991133
H         3.59813987219423       0.22947523570538      -1.00687658563584
H         2.42979342274970      -1.06921727235504      -1.46616989304407
H        -4.11794801494499      -1.05730962295440      -1.11638972794853
H        -2.90484319472217      -2.33096181062241      -0.70282084956326
H         4.14337092341871      -0.98423412650793       1.10478357864625
H         2.94677963638367      -2.27224840708399       0.68851082194649
H        -5.41700826340863      -1.62548530342552       0.96042245560714
H        -4.20430500106778      -2.89677147357000       1.37113349672386
H         4.25050491116991      -2.81337519902244      -1.38956239190768
H         5.44806490663915      -1.52925776162894      -0.97413477274844
H        -5.96506166612934      -2.82729709419000      -1.16589017842452
H        -6.20007226754334      -3.88375206352786       0.27738285915962
H        -4.74114764138874      -4.10079371381259      -0.76083213233471
H         4.80281317212375      -4.02019724294902       0.73684633144859
H         6.25851315633161      -3.78113452464680      -0.30081502456631
H         6.01146684492853      -2.73398313600196       1.14715250300489
N         2.58373030174340       4.05580342452370      -5.42953999671586
S         3.55436648458615       4.53607558995728      -4.19811501350773
S         3.15409234444385       3.33381584375275      -6.78727273265073
C         4.01194655857214       6.23901397765036      -4.44775442236599
C         2.95102172812186       1.57189558324979      -6.63376708194537
O         2.80324455579389       4.42247743158937      -2.90234712570782
O         4.79255940972152       3.68573693036316      -4.13411377830833
O         4.60748351442402       3.65767565516080      -6.99577848463078
O         2.36015395263091       3.80914492144157      -7.97126291112998
F         4.79996132074308       6.66874669723433      -3.39714166904254
F         2.87206351676142       7.01758555787270      -4.51260697251696
F         4.71715908868971       6.36119828968277      -5.62929331404742
F         3.45074162820485       0.94454760132447      -7.75908776843257
F         1.60835363363788       1.27317123493815      -6.50151874674694
F         3.63169492996792       1.12397692925008      -5.51820324219130
