49
C13H28F3NO3S optimized with ForceField in AMS.
N        -0.00841818780077       0.00639216345604       0.00046794249456
C        -0.86243358700695       0.64976296161349       1.06138278595650
C        -0.85151740984287      -0.63899682397077      -1.06794869868909
C         0.83736121418520      -1.05738513244536       0.64927138605996
C         0.84279227468599       1.07164316524197      -0.63990178162170
C        -1.93083821309941      -0.26377679532804       1.71541415212125
C        -1.91862265791783       0.27072427043298      -1.72903435821898
C         1.91303444957737      -1.71133441460166      -0.25411859691316
C         1.91145337211994       1.72489213474076       0.27407137851332
C        -2.73093594899499       0.50505141056054       2.76463710293100
C        -2.71158550083723      -0.50218566970194      -2.78089374311432
C         2.71326143372238      -2.74867487542395       0.52922248580726
C         2.71374266058265       2.77237796536723      -0.49527276404874
H        -1.37200042203808       1.55303479349289       0.65816079805432
H        -0.22407681731339       1.02029891601511       1.89207226611256
H        -1.36120153181515      -1.54436489192852      -0.66941036869139
H        -0.20503636616040      -1.00660358289931      -1.89383205542938
H         0.19508456521287      -1.88878871479346       1.01128488805342
H         1.33882745732957      -0.65623016668149       1.55813881073226
H         0.20234687245374       1.90226780417556      -1.00704873299930
H         1.35247607427217       0.67236910621217      -1.54502475790910
H        -2.64832514253250      -0.65124805901770       0.96507074757138
H        -1.45595956387293      -1.12434012226060       2.22759068100289
H        -2.64166312106096       0.65688082625160      -0.98340688124928
H        -1.44263046959037       1.13208272998104      -2.23899207792201
H         1.44499874717546      -2.23175487182992      -1.11387151867599
H         2.62973607373894      -0.96134664204522      -0.64325892705677
H         1.43607662370906       2.23704490062767       1.13436149098045
H         2.62861477134769       0.97482739114607       0.66254927769655
H        -3.48643736154371      -0.16718464592210       3.22346142723931
H        -2.05828898603783       0.87922236016335       3.56581887376851
H        -3.25741834536650       1.36387170154237       2.29667854412919
H        -3.46655767942821       0.16709478166384      -3.24488364515379
H        -2.03419962685205      -0.87687810756457      -3.57777314218088
H        -3.23865509463243      -1.36116246002247      -2.31370645261358
H         3.49437165402031      -3.18297875434622      -0.12621660271713
H         3.20992767779877      -2.27727555802259       1.40371827392261
H         2.04809666435054      -3.56649523112109       0.88007833721614
H         3.46876463519785       3.23171836747900       0.17716065376690
H         3.24155368293926       2.30255651595583      -1.35238450274915
H         2.04254083175759       3.57335701377777      -0.87231375450243
S         4.99537454456866      -7.48325199178328      -1.70590462368040
O         5.45159162733847      -8.00720478770419      -0.33642970086921
O         4.14472203974738      -8.63677494706052      -2.25692914420901
O         6.27518668628429      -7.55651675057206      -2.55130925258581
C         4.18176977641946      -5.86260300877714      -1.67900130974402
F         5.06744830979795      -4.91701491040450      -1.19994902389735
F         3.07220891702493      -5.91727420283198      -0.85712717120197
F         3.79048118588608      -5.52037893013662      -2.95911593618638
