67
C19H28F18NP optimized with ADF in AMS.
N        -2.07082409794763      -0.27995481046404      -0.05875447108286
C        -3.01698073658142       0.10892943358663      -1.18076788459528
C        -2.75896064758851      -1.31006299325789       0.82816737079559
C        -0.85548892248391      -0.92375528849607      -0.71604793329174
C        -1.67634195951236       0.91145713942430       0.78951947130844
C        -4.37134212481837       0.59094157219202      -0.68947366134358
C        -4.11803456486428      -0.86281904126414       1.33672938114904
C        -5.04265082957522      -0.46513494925637       0.18895406874090
C         0.22072257794775      -1.42560690331131       0.22552996075958
C        -0.88098280468285       1.98581788521732       0.07614815721857
C         1.35529255572936      -2.04801434188355      -0.59536014130379
C         2.36099317883937      -2.78298726188780       0.28679415971406
C         3.48355663059323      -3.44167735016596      -0.51186267531768
C         4.45042194189130      -4.21761143852852       0.37877531524177
H        -3.13658230166810      -0.80345882853544      -1.78370076486888
H        -2.49723719978501       0.85900620173064      -1.79311294521717
H        -2.06969158599502      -1.52511802870008       1.65274821003921
H        -2.84877193209920      -2.21679052899331       0.21853750072959
H        -0.45900679128180      -0.17763511253970      -1.42195025620125
H        -1.25321238748150      -1.76830645148049      -1.29537251396755
H        -2.60796414458069       1.32461070697716       1.19435940908647
H        -1.10603494991821       0.49639427161484       1.63221637068661
H        -4.98055787368196       0.80233648056509      -1.58443681817828
H        -4.27720180267254       1.54901217979893      -0.14842526494737
H        -4.02260033815676      -0.03920830842472       2.06559491224093
H        -4.53083929975246      -1.72213303439153       1.89087424091171
H        -6.00250523224523      -0.08927760010135       0.57730651086214
H        -5.26681985005370      -1.35717845538106      -0.42033485937524
H         0.62567685032724      -0.61640778651991       0.85820393092927
H        -0.19092617847902      -2.20807353095281       0.88171911810212
H         0.09386365613194       1.62303951732013      -0.27669417851573
H        -1.42747058873542       2.42867154141498      -0.76838913855139
H        -0.68801114266071       2.79611205515719       0.79603805006561
H         1.86687248812194      -1.26452271195186      -1.18599656704639
H         0.92267353792617      -2.76825891487463      -1.30997843131567
H         1.82138172769806      -3.56160922055605       0.85651238194753
H         2.79381709273386      -2.08349435167852       1.02860564447194
H         3.03527600154899      -4.12468378410796      -1.25442565955095
H         4.03322253321083      -2.66859408362200      -1.08111920337789
H         3.91761037172112      -5.00922783705506       0.92986265533588
H         5.24705406801253      -4.69665023162097      -0.21045181404574
H         4.92772215655991      -3.55432014186078       1.11865470019000
P        -1.96822532342245      -5.58870815674293      -0.50468728017349
F        -0.92886190912056      -5.87113736424694       0.76657546868291
F        -2.36940010160033      -7.18950559203753      -0.57834576214202
F        -1.60702363964314      -3.91708018927346      -0.47962536509844
C        -3.35855153079318      -5.23600903263930       0.87385808370422
C        -0.37116742166581      -5.82010991084517      -1.66091430757365
C        -3.24823297991054      -5.32206713138940      -2.03215559747725
C        -2.88271342265041      -4.90815762134960       2.32967219716040
C         0.11440837824261      -7.26311658422429      -1.98937904070349
C        -3.47884453615637      -3.93729612972472      -2.71931474068623
F        -4.22212439643683      -6.28855485664790       1.02624233349004
F        -4.13112762157897      -4.13140931304999       0.51845793753733
F         0.70565302676963      -5.22504745616100      -1.02722590652401
F        -0.48265798785330      -5.17164641746471      -2.87345247408901
F        -4.51209201637197      -5.71477588242352      -1.63728724571931
F        -2.88748892478150      -6.16726786005410      -3.05542916105947
F        -3.95022210009143      -4.44716522350686       3.05565076399780
F        -1.94249584736006      -3.92079820489484       2.36178695236490
F        -2.39976751422228      -5.98801929857727       2.96653938204272
F         1.28711923431126      -7.18610420176312      -2.68809764412470
F         0.35354661630748      -7.96894767118122      -0.86213595535579
F        -0.76955743828734      -7.93980162124777      -2.75313900013218
F        -4.13454902662344      -3.06474845035331      -1.89550017594869
F        -4.25539659298437      -4.09476305199175      -3.82273307106094
F        -2.33590099326839      -3.32140532074465      -3.11277389674418
