39
C11H21BF4N2 optimized with DFTB in AMS.
N        -0.41434849801165      -1.94558782519084      -0.03012021875543
N         1.64892605750437      -1.84171784372255       0.57956623914794
C        -1.83567770678109      -1.64365557724219      -0.15843215033991
C         2.88100982418721      -1.39869764212850       1.22243285094544
C        -2.04209794585349      -0.47553219511799      -1.13110729736037
C         3.43623521663597      -0.16138229307003       0.50391497062262
C         0.41991745789092      -1.40774283832618       0.86013297183631
C         0.30191442203840      -2.69453366603973      -0.92220880801195
C         1.60291706195538      -2.62887524582046      -0.53755150615786
C        -1.70187557165908       0.87546971209683      -0.49641165996651
C         2.68626395031880       1.11696892854420       0.88686194427037
C        -1.65201679330463       1.97597726049365      -1.55424187721324
C         3.10022729011471       2.27875816758575      -0.01352595897911
H        -2.32833386558553      -2.54470417852892      -0.53293830092052
H        -2.22731230760010      -1.41039804081477       0.83627212485411
H         2.66532257866868      -1.18601746638159       2.27371751942744
H         3.59345659554777      -2.22553394888678       1.16430035820145
H        -3.08840249728834      -0.48533560652500      -1.44956128407547
H        -1.41356860909638      -0.63868229979517      -2.01030128368854
H         3.36152708446848      -0.31873240833611      -0.57485282663151
H         4.49377628509119      -0.06643065778328       0.76695355199766
H         0.14300166941834      -0.78223294582091       1.68977782359217
H        -0.15973160806250      -3.17754019192018      -1.76414131416419
H         2.49033576839191      -3.04835625161363      -0.97594110408963
H        -2.44343976475433       1.12063108256170       0.27301509711564
H        -0.72224443316993       0.81065573836885      -0.01417294124131
H         1.61130049324102       0.95123008508760       0.77091915323805
H         2.88141004725849       1.36096733314884       1.93782774440689
H        -2.60219784496721       2.04508553757604      -2.08570013803992
H        -0.86014052199053       1.76231077114879      -2.27178076143211
H        -1.44482961341162       2.93583797869935      -1.08090090164768
H         2.84500100382949       2.05192074425409      -1.04845079782058
H         4.17424619342691       2.45727168869368       0.05478689934961
H         2.57469644840033       3.18587831112734       0.28536761352287
B         1.41025664508688      -0.32605624940215      -2.60223134771710
F         2.57173915653056      -1.10185276341536      -2.39264044834311
F         0.37005493380406      -1.17704540367981      -3.03197383367406
F         1.63510492130513       0.69156118339639      -3.49195372318272
F         1.02617793612143       0.20885060287902      -1.33840872417571
