46
C12H26F6NP optimized with ADF in AMS.
N         1.22814658802725      -0.70356858290858      -0.35873865621238
C         2.10848361401769      -0.17063476747500      -1.46875854721545
C         2.10476305140108      -1.79133159934450       0.24983301611195
C         0.95946795360931       0.37384692301306       0.68490169904237
C        -0.05223028603681      -1.27813150276197      -0.91665596869971
C         3.51839161355199      -0.13539111639324      -0.87897742120088
C         3.51381599695711      -1.20592373319760       0.24635136031034
C         0.05832045235152       1.50818623637685       0.23168618754573
C        -0.97093593914552      -1.88042802008548       0.13028860105726
C        -0.07382309884220       2.53347694836879       1.36434746992095
C        -2.18476202922256      -2.54566784970132      -0.52036448527232
C        -0.99233483776628       3.69483730232220       0.99440887364923
C        -3.11370250428487      -3.16018281770641       0.52445940506063
H         1.72036936889923       0.79683656839577      -1.81023101830383
H         2.03611344253115      -0.89869442467155      -2.29136850514909
H         2.01777089519391      -2.65217507352159      -0.43151820061180
H         1.73914054971234      -2.05435260812859       1.24929909006177
H         0.54914983185218      -0.14763936488139       1.55962047094708
H         1.94434048986024       0.75228669518713       0.98988398866161
H        -0.54857503127273      -0.46823762184250      -1.47386109712822
H         0.26203323118102      -2.04504365245950      -1.64436017815136
H         4.25693073852833      -0.35217716314457      -1.66438361280579
H         3.75442792279637       0.86031964872231      -0.47568982935163
H         3.73428156182534      -0.76791310616645       1.22950267398446
H         4.24888452736932      -2.00222132351743       0.06601844049076
H         0.45612953348187       2.01578360359600      -0.66580758288385
H        -0.94804052423252       1.13284579548610      -0.02147897217518
H        -0.42599954535672      -2.62111534906404       0.73664445749134
H        -1.31388671841054      -1.10668543669994       0.83545176543171
H         0.92846095544405       2.91679700194120       1.62492913619156
H        -0.45069179641735       2.02351601005097       2.26793523292179
H        -2.73927889379692      -1.80251546984249      -1.12306935138181
H        -1.84384150293078      -3.33032064719944      -1.22105396084233
H        -2.00901371012875       3.33893981323636       0.76121478303334
H        -0.61380028684857       4.23977833863905       0.11422044632385
H        -1.07242392469939       4.41211175325842       1.82456313511299
H        -3.48768828999852      -2.39097530178265       1.21841737776992
H        -2.58234804532096      -3.91538011045945       1.12451639804964
H        -3.98087381162605      -3.64485246060798       0.05269168066362
P         1.49760779697094      -1.58370449544618       4.17014782962784
F         2.69296419688535      -1.52358626389533       5.28084880713813
F         0.70958946884010      -0.31904474603543       4.86475705382671
F         2.33860078034519      -0.49593257492834       3.19909658849161
F         0.28965172553971      -1.63687837246378       2.97553416885731
F         2.26576467329340      -2.82296393136862       3.36277440453424
F         0.64498876647201      -2.66077250789285       5.05694967467588
