39
C11H18F2N2O4S2 optimized with ForceField in AMS.
N         2.36135339901639       0.01849704549474      -0.50695945449706
C        -1.45610472029863       0.04409377601865      -0.67761435583936
C        -0.05606843063982      -0.00091480704604      -0.05500677674420
C        -2.53877647407265      -0.01958390792482       0.40622156650070
C         1.03278271692860       0.07142622152075      -1.12942559754606
C        -3.94135345950488       0.01055683631484      -0.21134948103225
C        -5.01875480980217      -0.05667934614618       0.86718178148335
C         2.96409941810538      -1.19139354227487      -0.29372986463635
C         2.97922576407529       1.17774709690790      -0.12321955845106
C         4.22071399430853      -1.26079086749064       0.31248046986517
C         4.23648957281053       1.14379279413041       0.48463579961472
C         4.85891128916664      -0.08436165839027       0.70233784982939
H        -1.57754271633319      -0.81684225997182      -1.37155549402033
H        -1.57147838172719       0.98587168797370      -1.25841167682466
H         0.06623302544012       0.85557422133083       0.64389125986557
H         0.06285951802853      -0.94520110311574       0.52035308847912
H        -2.41640609827254      -0.95625820796464       0.99377758925780
H        -2.42152913686661       0.84686373654833       1.09410317854918
H         0.91942942199199       1.01132833649210      -1.71475834875608
H         0.91188312576992      -0.77026150859511      -1.84786019917449
H        -4.07448773689855       0.94759456821249      -0.79483746400755
H        -4.06712392256804      -0.85398617377990      -0.89907892472935
H        -4.93245158040937       0.81245136492350       1.55364120807316
H        -6.02213210592261      -0.03584797128699       0.39218040427466
H        -4.92190231463345      -0.99656320294026       1.45144545797199
H         2.47155103064198      -2.11107385288349      -0.58672013733143
H         2.49921013083097       2.13620859105919      -0.28224727591427
H         4.69355974417469      -2.21952930409442       0.48203305017970
H         4.72220308228784       2.06253530603153       0.78739011630083
H         5.83155531465509      -0.12449572045149       1.17524460822824
N         4.21700550088816      -1.01152221793379      -3.64031374738431
S         3.31440468751656       0.13919237367811      -4.37492187275400
S         4.97494575049678      -2.17654637458683      -4.50420022284783
F         1.80790650980007      -0.49348677415440      -4.74078194654501
F         6.27135085543791      -1.50282765921710      -5.32259231266905
O         3.14923920605557       1.31379741187911      -3.45414217490113
O         3.97973833677188       0.58431880123866      -5.64693449139518
O         4.02482093613571      -2.77240499694028      -5.50465181498328
O         5.47241085301456      -3.24874468256575      -3.57744481278930
