23
C7H12N2O2 optimized with ADF in AMS.
N         1.25056012322328       0.08476762680719      -0.46885967032725
N        -0.77388181678758       0.14828309447239       0.32742786269062
C         0.36905042316886      -0.55546270189058       0.32601621908950
C         0.69753400838166       1.28799352621792      -0.86283792840614
C        -0.56997806053222       1.32961254480300      -0.36434276927347
C         2.64717562130830      -0.30479957783373      -0.58704469963842
C        -1.94593482847021      -0.19759015253604       1.12208788387098
H         0.51506365916556      -1.51926780033182       0.78869644530754
H         1.24938099325868       2.00273035096231      -1.45953013151846
H        -1.34060531229067       2.08509574690718      -0.44266973887316
H         2.70673149754916      -1.36695338452166      -0.85742059710806
H         3.11331823539990       0.29219348531208      -1.37873993598534
H         3.12702731587522      -0.13537080846742       0.38754257987288
H        -1.65402356154166      -0.02387939785650       2.17805358128451
H        -2.78483079473455       0.42772230420912       0.79659072497600
H        -2.19349611068846      -1.25342876508739       0.95282335530721
C         1.88621466896470       1.02739042902060       4.31739971542986
C         1.08321921499268       0.32815613646800       3.21132874912048
O         1.76974365544495      -0.21730868467268       2.28151778766424
O        -0.17104940646252       0.33787008243680       3.33244125689778
H         1.32267690171252       1.88676543705102       4.70642832009437
H         2.03218447132590       0.32143070019359       5.14989460656351
H         2.87531697903649       1.34535729893661       3.96044104946082
