36
C8H18F2N2O4S2 optimized with ForceField in AMS.
N        -0.38723812629453       0.33723222288733      -0.03870967751539
C        -1.41446783959898       0.59043938888527      -1.07572021238249
C        -0.85730629148436      -0.89863554868969       0.62610380397906
C        -2.74543007866356       0.07801622819456      -0.53592043491217
C        -2.38141554897880      -0.89031408755735       0.57798983695583
C         0.95040121188324       0.15993414747191      -0.67995322003721
C        -0.37073464650724       1.47176466245613       0.92309603283272
C         2.09744464085782      -0.12214016574998       0.31687682681900
C         3.38170566273571      -0.50274655591234      -0.41542505858838
H        -1.19184477812765       0.02364947289873      -2.01016953283941
H        -1.48138297271448       1.66712948285272      -1.35447931712914
H        -0.49670630092474      -0.98211983101700       1.67620951355488
H        -0.50248018903601      -1.80269920021174       0.07826526439733
H        -3.33081994462971      -0.42895437791334      -1.33305286233156
H        -3.34426190504727       0.92299630007140      -0.13029271328580
H        -2.78973651057214      -0.52784454561144       1.54716584725303
H        -2.77956410269194      -1.90837152218288       0.37367228381756
H         1.21130508591251       1.07304559318215      -1.26283808530837
H         0.91238097769107      -0.68030628207045      -1.41132226511821
H         0.02256886022844       2.39438819294451       0.44154304381241
H        -1.39120126114234       1.69637113343512       1.30502681482358
H         0.25734073079658       1.24476834786789       1.81090432226294
H         2.30798436506688       0.78415262634273       0.92298687168670
H         1.82715616678051      -0.95296950037296       1.00124020019961
H         4.19547463396847      -0.66765864916298       0.32217200054711
H         3.23342604398990      -1.43999978454403      -0.99298643788819
H         3.68831607917543       0.31078714984179      -1.10687998977587
N        -4.99568771251166       1.06591947934110      -3.69985988887568
S        -6.00948740403951       2.32693454727228      -3.94144954900674
S        -5.47844175618679      -0.47042943483863      -3.98701915212166
F        -7.36511940313035       2.15009618329101      -2.97464217015485
F        -5.98918028734643      -0.61145822440024      -5.57547836375819
O        -5.30768423666310       3.60960787416859      -3.59798041567729
O        -6.44235247916631       2.35976443500135      -5.37999157021476
O        -6.62318260278934      -0.81746418057342      -3.07780251599162
O        -4.33547837533932      -1.41258080149808      -3.73881720002878
