39
C11H18F2N2O4S2 optimized with DFTB in AMS.
N         1.98406037054640       0.52545866979017       0.08715247368932
C        -1.76121415568717       0.26114943954259      -0.50139892766495
C        -0.39452860439144      -0.14853076989540       0.05555844715621
C        -2.88640148894845      -0.39708822836399       0.30177687080369
C         0.72290732050522       0.60976812042951      -0.66764896753771
C        -4.26015318089902       0.02893674225846      -0.22350768240970
C        -5.38328683891393      -0.60130714571525       0.59779117509221
C         2.53463888331195      -0.68213277731058       0.30456695489348
C         2.53892402810448       1.63665073823394       0.58869046316107
C         3.68952351731441      -0.80308412239245       1.04373807518641
C         3.70677070351207       1.56824107656236       1.32432157140518
C         4.29227027709939       0.33632379715934       1.56552642620527
H        -1.83270669151003      -0.02335690337571      -1.55706794892351
H        -1.86344822181429       1.34842942385156      -0.43410472046906
H        -0.35128225268592       0.09480901523913       1.12074843968974
H        -0.24807333537296      -1.22678241747760      -0.05664385114374
H        -2.78920061683905      -1.48714093244644       0.24755715117897
H        -2.79483045207091      -0.10019086174804       1.35072508982316
H         0.46487255469504       1.66632006562711      -0.75860258145270
H         0.90105562657357       0.19713114362262      -1.66504292121679
H        -4.34173284787502       1.11948742413640      -0.17350406442878
H        -4.36172502358211      -0.26844797829604      -1.27324642040584
H        -5.30684785165028      -0.29560757476040       1.64204113998755
H        -6.35263100785870      -0.28460477886536       0.21226723193079
H        -5.32873184827979      -1.69016158546774       0.55057308414566
H         2.02727863266343      -1.53877257671338      -0.12114565220664
H         2.01848181069876       2.57154472695327       0.42148048077397
H         4.10473450291050      -1.78661742796679       1.22150948358404
H         4.11702128311276       2.47858933026014       1.74078738701916
H         5.19153958064160       0.25755381614711       2.16362045745192
N        -0.33942107845945       1.30550336831177       2.92053404863020
S        -0.93549000441223       2.68964030183353       2.42007996664694
S         1.13067020526994       1.32557531016860       3.52251487007662
F        -0.04507131157672       2.94195114560213       1.03309810324863
F         0.87179077054301       1.38873936692641       5.10757737014751
O        -2.24190987582936       2.43683134636440       1.91064294794145
O        -0.68563509213107       3.85436040057479       3.19517673845029
O         1.94848795863487       2.46936850060074       3.23962763889779
O         1.70811744865043       0.02937615549908       3.30991889774221
