32
C10H15F3N2O2 optimized with ForceField in AMS.
N        -0.69434029896498      -0.90191907245892       0.42401445669939
N         1.49444302529386      -0.52316590926687       0.34106747915638
C        -2.10208481670602      -0.79050094067348       0.80192129019756
C        -2.91079681158329      -0.07144928638737      -0.28549593276197
C         0.34346231173222      -0.25204906987983       0.98580275935615
C        -0.18151944796586      -1.61328621323774      -0.60094019036470
C         2.79927238254331       0.07953708921012       0.59520427644753
C         1.17626669871399      -1.37391982496636      -0.65554632898723
C        -2.42767932522126       1.36159885251512      -0.50710316426932
C         3.07797212585811       1.17639464077645      -0.42640043233538
H        -2.19803524858907      -0.23409627451875       1.76064039157880
H        -2.51933951014160      -1.80797009700357       0.96112557830124
H        -2.84508193853232      -0.63481118900407      -1.24131632150788
H        -3.97822047764811      -0.04507178817881       0.02224047967818
H         0.25603492659512       0.43677042121802       1.81745460686467
H        -0.75430225635210      -2.23652842706995      -1.27544085775206
H         2.82099576489191       0.52118004765628       1.61549828527847
H         3.58800601259134      -0.70109731454646       0.54021538388732
H         1.87333361520015      -1.76986844673917      -1.38290525810730
H        -1.39376115300561       1.36535909837834      -0.91299523629948
H        -2.44878694134080       1.92986818616689       0.44707849588379
H        -3.09200997255616       1.86884103606300      -1.23787243771529
H         3.13377586063944       0.74420989843456      -1.44780573091232
H         4.04229047943353       1.67323102327355      -0.19252176361780
H         2.26838693274426       1.93670428424107      -0.39636491510809
C         6.66275988273384      -0.19701575638062      -0.60442427618743
O         6.29489861545089       0.14771603144954       0.50732287326260
O         5.96315780835450      -0.94757708132130      -1.26568804269356
C         7.96808748331934       0.29222421895541      -1.15916740178386
F         8.79643679295399      -0.78596004008007      -1.40960636516584
F         8.59234015113358       1.14009064052527      -0.26047620798791
F         7.74246122252380       0.97569540544968      -2.33962356163465
