34
C8H20BF4N optimized with DFTB in AMS.
N        -0.30389773901108      -0.22621692433267       0.18613503363700
C        -1.38851016644226      -0.17734158686936       1.23586809606577
C        -0.83236402547102       0.17054015611193      -1.16408639461891
C         0.22964716250263      -1.63410525702428       0.09753899934067
C         0.78161042626959       0.74457924198785       0.58448225921585
C        -2.61883364675169      -1.01979948282209       0.93999904921883
C        -1.57588955604186       1.49820919248742      -1.20989315843609
C         1.35989782965386      -1.83265037061011      -0.89932431490787
C         1.56611298989723       0.37209107979576       1.83330709595191
H        -0.94713501933310      -0.53332600875093       2.16865656420428
H        -1.66572522913779       0.87220853897280       1.35775158135684
H         0.02413393641333       0.21875591482711      -1.83995550408894
H        -1.49059845415003      -0.63364483966742      -1.50055020717645
H         0.56976551283520      -1.91225270261501       1.09575651840221
H        -0.61151386071712      -2.27531367240472      -0.16821292873961
H         1.45792468905029       0.83634181254202      -0.26959713277593
H         0.29369161921628       1.71018795018662       0.73759394827750
H        -3.32529549186028      -0.83793643514735       1.74996816228392
H        -3.10082652086893      -0.75897627338074      -0.00133543039299
H        -2.37670777754996      -2.08032672043103       0.94729044798033
H        -1.85625295284173       1.68013371593337      -2.24758241065263
H        -2.48499943764378       1.47757815116023      -0.61265108319892
H        -0.95113692104614       2.32505763944303      -0.87710465108733
H         1.68740207022855      -2.86802677413864      -0.80442847096144
H         1.04272714898670      -1.67141201261575      -1.92927643077473
H         2.21237371086467      -1.19063082837740      -0.68478556042313
H         2.26492480516606       1.18570905929235       2.02934144801457
H         0.92119215282557       0.25297781393565       2.70097780857094
H         2.13395792974299      -0.54583438775701       1.70191683838552
B         0.07337768565078      -2.46021556864801       3.44999201486078
F         0.05801487977784      -3.34407515301428       4.48637472851367
F        -0.24179716841346      -1.14388550454379       3.87158670446771
F        -0.87419384342091      -2.81130868763480       2.44641268808846
F         1.33775620441954      -2.40664731829077       2.81415672449821
