35
C9H20BF4N optimized with ForceField in AMS.
C         2.69905268581433       0.34343001200572       1.54995106829706
C         1.64841460385732       1.28388865017721       0.98008994572223
H         1.33680379878379      -0.87147456113048      -0.88558870811981
H         0.38431105594113      -1.69207675658251       0.39310482152980
H         3.16816180568853      -1.42034624960501       0.36304234219582
H         2.17520984846518      -1.73610296056755       1.84299131458695
H         2.64727823845591       0.34009174173529       2.66080103007074
H         3.72090511150464       0.65227187965758       1.23720101642331
H         1.37745239140153       2.07202461066371       1.72035942560249
H         2.10839266043866       1.80465302964960       0.10690789625763
H        -1.22939949832763      -0.43974412247846       1.51758244374147
C        -0.44047267327796       0.31542352651245       1.72311823978083
H         0.10324843258697      -0.03131156878544       2.62987682678383
H        -0.93554702500641       1.28143944066775       1.96710251555040
C        -0.19664238656065       1.15329137701247      -0.58613566217665
H        -0.32910782377100       2.23220042161787      -0.33693236630139
H         0.45484875741030       1.13857033455299      -1.48863041743160
H        -2.31611163167684       0.72008360122426      -0.14031483863421
H        -2.97553735536740      -2.09955052582442      -2.64230531864882
C        -1.62790527471362      -0.77495891400676      -1.57431720793484
H        -0.81155736233521      -0.89817587606942      -2.31802919274883
H        -1.50010802797217      -1.52051851465920      -0.76578676306298
C        -2.96450076863795      -1.05842043225123      -2.25660583562877
H        -3.11892380081224      -0.36379050461461      -3.10916727283092
N         0.47867907015611       0.47001447368169       0.56499713406545
C         1.06881877742617      -0.83923987781702       0.19439100964024
C         2.34892895480281      -1.02650370908942       1.00411379621954
H        -3.79976315427103      -0.93890666431263      -1.53377782086174
C        -1.60290352549855       0.64278753517989      -0.98702323327607
H        -1.97800732601055       1.34338546982725      -1.76595326999901
B         2.46985254326356       1.36051151795058      -4.14879951529663
F         2.54974997635481       0.40736187005209      -3.09918119760489
F         1.18423642024811       1.96435450316995      -4.14491058924916
F         2.68436463416637       0.71189790787672      -5.39404346707544
F         3.46230406727298       2.35847812387910      -3.95825916978604
