66
C18H28F18NP optimized with ADF in AMS.
N         0.93694136113941      -0.17852180472614       0.54336205644282
C        -0.13808508974326      -0.05684256059948       1.61899540398352
C         0.52545742070571      -1.17389894156784      -0.52465098485238
C         2.23489664884715      -0.66871671316139       1.18993317536586
C         1.13608761332971       1.17987557750512      -0.10553424544305
C        -0.68559809535823      -1.36565383342734       2.16517956927767
C        -0.80030457648132      -0.90765344046214      -1.22027613314327
C         3.44625812873098      -0.66794902755864       0.27029121584166
C         1.66019677217047       2.27405061252132       0.80758270165692
C        -1.74215534726422      -1.05596848132313       3.22726752528401
C        -1.12427260110640      -2.07685384790828      -2.15202594788058
C         4.66432773053752      -1.21829116891435       1.01241962528569
C         1.90024132318955       3.54392106779107      -0.00832958001156
H        -0.94593869589316       0.54559010833281       1.17618200799417
H         0.31745174991351       0.52292496887423       2.43148919142596
H         0.51202516231064      -2.15628017753759      -0.03110841896779
H         1.33882857393025      -1.18352394460366      -1.26270749881841
H         2.02368407849169      -1.68158655828577       1.55839718122315
H         2.40985440878996      -0.04265461937677       2.07438720151706
H         0.15783815927604       1.46786061676807      -0.51567911014557
H         1.82053543849075       1.01720329995450      -0.95118963780759
H        -1.14442865565090      -1.96751157122402       1.36488294293405
H         0.11858321987405      -1.95941738915314       2.62362712663020
H        -1.61309994358920      -0.79275844211722      -0.48653332699279
H        -0.75242111185383       0.02319603049907      -1.80674414362434
H         3.26215213241894      -1.28259318198044      -0.62631922067137
H         3.66929799716906       0.35590593555716      -0.07088801155785
H         0.94074974121849       2.48586426596158       1.61141281577687
H         2.59742212021999       1.96783948974224       1.29494102408731
H        -2.14610832411629      -1.98900573536051       3.64388152257984
H        -1.30532110330483      -0.48362345844572       4.05754244733842
H        -2.57860615744853      -0.47861993486741       2.80234356657422
H        -2.07255601077197      -1.90217494910484      -2.67954290626098
H        -0.33676609316533      -2.21476324536426      -2.90887466082956
H        -1.21940749587829      -3.01700805028596      -1.58699583341902
H         5.54037186925741      -1.22320326649622       0.34834338576034
H         4.89447305499499      -0.61313446777250       1.89902351145519
H         4.48674364013258      -2.24650667587451       1.35868307773154
H         2.26603431567438       4.35016270678791       0.64260058203588
H         2.65359301729663       3.37659970696965      -0.79376204736927
H         0.97410669341881       3.89309538916850      -0.49128348051068
P         3.65900040249316      -0.35776112187924       5.59302758315126
F         4.99787074909510       0.58572889498871       5.85712786295908
F         3.69202786777050       0.08177928183637       3.94998332129844
F         3.53170737137124      -0.82595370108023       7.18162030479595
C         4.89137737339552      -1.87275649514431       5.27861207458879
C         2.61969365540814       1.27292418686935       6.07014641065825
C         2.04318755231815      -1.44787255519130       5.07537115022651
C         6.34117220246101      -1.76501361107039       5.85638552510467
C         2.49840104303016       2.42711846623704       5.03543957292971
C         1.17909619658099      -2.24873052100187       6.09583715544555
F         5.08559745165041      -2.13446918348101       3.93377968829919
F         4.36969700016166      -3.01919993324730       5.83581864168431
F         3.22472893258977       1.85150441445057       7.16263766174260
F         1.32115763836762       1.00689432210223       6.45648410904727
F         2.39725061046619      -2.37917887428526       4.10769062391253
F         1.13871635228258      -0.60230224360594       4.43921340422661
F         6.94705593148512      -2.98640297357116       5.74800215176271
F         6.35261965015277      -1.41838502781682       7.15956472582984
F         7.09474825907021      -0.88661444593848       5.15336400581065
F         1.90727911542336       3.50925855472759       5.61363362142191
F         3.69413711415068       2.81994873754388       4.55037601427371
F         1.70555358119351       2.07504024079159       3.97486248580069
F         0.13827351109299      -2.84331017677308       5.41595881189981
F         0.63674188432477      -1.45473301217531       7.03907928013629
F         1.87348806646144      -3.23027010041961       6.69891478529739
