23
C7H13ClN2 optimized with ADF in AMS.
N         0.20049731576678      -0.46813414344251      -0.47522990126332
N        -1.77253156035008       0.42991747600370      -0.22754016765563
C         1.57403558090405      -0.67458077930555      -0.93900358809498
C         2.54887022770405      -0.91864498505201       0.20976874898526
C        -0.57402685658817       0.57610307304355      -0.84075776560147
C        -0.46351082622487      -1.20113639418802       0.49609988718457
C        -1.68774344196690      -0.63123738793001       0.65856121154472
C         2.60266225858970       0.23095982781959       1.20914458695754
C        -2.75932028578194       1.49793867146603      -0.19468020929883
H         1.85225001816983       0.24763892296259      -1.47046448997429
H         1.58095471573611      -1.51659787165511      -1.65182646451066
H         2.29897349208804      -1.86891084026312       0.71486269525083
H         3.53943682095217      -1.07953551837487      -0.25068520471293
H        -0.37820757230762       1.23358388926447      -1.67471616463993
H        -0.01390957131942      -2.05590897620606       0.98235874727083
H        -2.50611528291838      -0.88621364748168       1.31950697696249
H         1.62155216422274       0.41522576732913       1.67094411526119
H         2.87474583703586       1.17364388739868       0.71202157676667
H         3.33466656743786       0.01890365729775       2.00215322102165
H        -2.25548049923079       2.38245818908745       0.23443129167682
H        -3.10449873891260       1.71897229051136      -1.21284040901174
H        -3.60918408572005       1.17568854631295       0.41675038865472
Cl        0.30429717831365       2.74890600010169       0.20450462212648
