36
C10H19BF4N2 optimized with DFTB in AMS.
N         1.68219409849779      -0.94437898345419      -0.58204682366853
N         2.65113652962500       0.90988553316128      -1.08007437909788
C        -0.45981468030384      -1.90134169287202       0.15580863162867
C        -1.28678100667235      -0.70821752530818      -0.32942115786877
C         0.79781953625928      -2.10051166053900      -0.69639481049144
C        -2.57040116228510      -0.54233927726210       0.48636075113832
C        -3.39044147627195       0.63994346499612      -0.04060501792129
C         1.91905815171406      -0.08525627880184      -1.56885179445727
C         2.26740948582816      -0.48127646576342       0.56793548482811
C        -4.67114841205445       0.83656765035092       0.76819668506963
C         2.87564924510942       0.69276987738896       0.25179795019859
C         2.95058646288329       2.12362700857222      -1.82187565400500
H        -0.17277104076676      -1.76552572990448       1.20372004425222
H        -1.04963606443362      -2.82057509490386       0.08589643052359
H        -1.53747857887546      -0.85000644839389      -1.38432022300679
H        -0.68803355513528       0.20375386596230      -0.25495834865716
H         0.53109760181873      -2.19571729315754      -1.75231761326046
H         1.34757465648675      -2.99033974137049      -0.37514921114287
H        -3.16731784714593      -1.45979370167415       0.42709120904642
H        -2.31841446612625      -0.37583302208451       1.54046361862797
H        -2.78484597923381       1.55053130743218       0.00741784918667
H        -3.64533881064973       0.46391609364101      -1.09032112943264
H         1.57087610167690      -0.17472683001916      -2.58483502049263
H         2.20878830772520      -1.01494990174157       1.50017882258878
H         3.44212366769423       1.37753430025195       0.85845382373925
H        -4.43726601401560       1.03718682516822       1.81528991260104
H        -5.23743463612924       1.67985089755798       0.37190317791815
H        -5.29741823640378      -0.05583881312420       0.71829364700171
H         3.78734237655897       2.63880682350853      -1.35413253855474
H         3.18170330775501       1.85969919111424      -2.85212720296832
H         2.05569956763794       2.74888345908140      -1.81237194152006
B        -0.12706965533962       1.22001266812996      -3.21135517712811
F         1.12626357355410       1.41495413712168      -3.84595660985844
F         0.04461824924244       1.63086179216277      -1.85705000158183
F        -0.37809568650705      -0.17505519402071      -3.19042764747041
F        -1.12533020601741       1.91660877739363      -3.82026878566446
