23
C5H9F6N2P optimized with ForceField in AMS.
N         1.10668752870964       0.00479686577893      -0.00926205524449
N        -1.11460384049011       0.01044798569440      -0.00448030712017
C        -0.00583103750715      -0.75454924402272      -0.00959437779028
C         0.68952865905980       1.28609251025324      -0.00202593653832
C        -0.69054338458332       1.28958547244603       0.00015798905650
C         2.48801311422269      -0.45702809755579      -0.00271856657458
C        -2.49868450538682      -0.44435914457810      -0.00216935532561
H        -0.00832274764858      -1.83791336990947      -0.00995869771270
H         1.33829369357682       2.15239951905236       0.00298033396766
H        -1.33462900198130       2.15926296236944       0.00653831554302
H         2.52896039054127      -1.56696865340063      -0.02261674937757
H         3.01932371833016      -0.06035571456704      -0.89344270969363
H         2.99192291550615      -0.09786724198797       0.91749293270166
H        -3.01456843626102      -0.06371569221269       0.90426563999001
H        -3.01734282510906      -0.06294492048147      -0.90664626542661
H        -2.54424506528015      -1.55447457504899      -0.00254291250842
P         6.58828281917490       1.66135767712097       0.47571182835891
F         5.57429404502536       1.91858652232763      -0.88772437177257
F         5.25724453374238       1.05205570402461       1.37249302543091
F         6.93192665561972       0.07921485790750      -0.10009384515234
F         7.58660078275474       1.38446697250813       1.84637261425497
F         7.94694108427372       2.28797338337811      -0.36916202153104
F         6.21757348511014       3.24025578600352       1.04301479626470
