31
C9H20ClN optimized with ADF in AMS.
N        -0.39577611543826       0.05451700848654       0.06516316238083
C        -0.94875259147747      -1.08965970176506      -0.77683332788580
C        -1.48249010141463       0.28152010449200       1.12166006029446
C        -2.44014971089909      -0.82097727954527      -0.85802191486382
C        -2.78626847277252      -0.28847998069263       0.54506964851219
C         0.89490653215761      -0.35793431408172       0.74324580889691
C        -0.23346359296091       1.28331618405319      -0.79895336600917
C         2.02940338885627      -0.67024559212401      -0.21414267629416
C         0.43147950680965       2.45751209249749      -0.10658027265942
C         3.22997519293242      -1.19308378303983       0.57586673134038
H        -0.77350317674447      -1.99885976443402      -0.16379546741532
H        -0.42216249560894      -1.11210468744264      -1.73962869600705
H        -1.51329380778515       1.35433438241342       1.34901995634009
H        -1.18128609081514      -0.31910524554644       1.99602512004119
H        -2.97421900142278      -1.75754115322928      -1.07798574504699
H        -2.68864589106800      -0.09603318002500      -1.65012656553937
H        -3.59592809717863       0.45505218101747       0.52031916264599
H        -3.07290760964595      -1.13495213502812       1.18925049953151
H         0.60359802212638      -1.25684523707370       1.33513299465673
H         1.16218431142910       0.45346626847187       1.43796792333372
H         0.35025179221951       0.97402715849204      -1.67857824025766
H        -1.24452524802289       1.54902676779022      -1.14034188847769
H         1.70912674877005      -1.44757324148869      -0.92832926346780
H         2.32846203404223       0.21625411752498      -0.80189008299125
H        -0.07134883279237       2.73048677733624       0.83204717373295
H         1.49043587771886       2.26097276576921       0.11014087474002
H         0.38029450821083       3.33019816815812      -0.77507767955018
H         3.58205570290301      -0.44581001867678       1.30465047203533
H         2.95532241504516      -2.10388137891465       1.12885466696932
H         4.06632896841342      -1.43239542464857      -0.09680939479772
Cl       -0.94088813208731      -2.79053401904640       2.03589793541176
