79
C23H36F18NP optimized with ForceField in AMS.
N        -0.53354042650499       1.78231805547998      -0.19898031946523
C        -1.39565267102429       2.32270792820276      -1.30049405756069
C        -0.21487213393138       2.89844923352969       0.75124561447782
C        -1.21138031880740       0.66527495969218       0.54868959770374
C         0.74476366894270       1.32229847643727      -0.84404010258865
C        -2.67839333751566       3.01677322308854      -0.81232571382970
C        -1.45583485988260       3.63975062729414       1.28984207606077
C        -2.33825104528836       4.14702245909090       0.15340236924961
C        -1.51668941296165      -0.61031300833517      -0.27531943152444
C         1.76972759160300       0.64042200175533       0.09678663166006
C        -2.19389916913679      -1.67017915105782       0.60451309778757
C         3.04250398781176       0.26510769527517      -0.67403410284598
C        -2.48586394432922      -2.94967054861341      -0.18943456212644
C         4.05059174500818      -0.45115752298970       0.23324133073956
C        -3.18727791580640      -3.99175017289269       0.68973292892095
C         5.32587960406019      -0.80890385857736      -0.53872512875326
C        -3.46476818223618      -5.27566118642389      -0.08691320429677
C         6.32758710383763      -1.53361863414150       0.35544841443369
H        -0.82779418916789       3.07780080662273      -1.89347541723316
H        -1.67105195865177       1.53272278108321      -2.02925436908599
H         0.34337571688284       2.52257734648080       1.63534839395380
H         0.43758834371449       3.65608246777237       0.25865954500190
H        -0.60242255901218       0.37350760401190       1.43231043942305
H        -2.17198576041637       1.00483702977650       0.98184843797113
H         0.52550856376632       0.62458264518161      -1.68284077639090
H         1.25875563899273       2.18800613291664      -1.32312224333001
H        -3.21102096082491       3.44493676689111      -1.68908704570711
H        -3.37392040963899       2.29380868458650      -0.33881869832930
H        -2.04430920300858       2.98855102927615       1.96913533061062
H        -1.11967533620354       4.50943014850559       1.89509692729008
H        -3.27574004076203       4.57294646908988       0.57198915136356
H        -1.80729380750710       4.95669032005974      -0.39452525601963
H        -2.20215747359808      -0.37546642444742      -1.11430930642690
H        -0.58393454881990      -1.04762952080350      -0.68527120930918
H         1.34405923666113      -0.28771553040086       0.52979118526295
H         2.05557455440157       1.32244235587627       0.92291860841292
H        -3.14819671815866      -1.26053666831626       1.00362633968270
H        -1.52993885201514      -1.91625613914505       1.46253625085473
H         3.50916150104298       1.18784850344217      -1.08451629225850
H         2.77646827878996      -0.40303412216695      -1.52276289578446
H        -3.13572131827901      -2.70522077164934      -1.05857047969725
H        -1.52969680412755      -3.37192153957223      -0.57012068988472
H         4.31173857423989       0.20985001971308       1.08899585324037
H         3.58930130763866      -1.38137604063375       0.63268500621444
H        -2.54850648146818      -4.23398418087608       1.56698577319863
H        -4.15178384381739      -3.58054604109701       1.06000863542644
H         5.07217103527474      -1.46564917460632      -1.39939415467237
H         5.79892662074833       0.11790292019912      -0.93082644142382
H        -3.97553809249133      -6.00519584020072       0.57602379073863
H        -2.51346219844813      -5.72523498272928      -0.44306252157784
H        -4.12168799992262      -5.06701411137113      -0.95811534098436
H         6.61598970702762      -0.88943760188919       1.21333396979370
H         5.88927929717608      -2.48001501481860       0.73784121480126
H         7.23999504120098      -1.77580063512729      -0.22925243533409
P        -6.34660852386002     -10.59224055411419      -2.45271691299321
F        -6.68245661957836     -12.15425930999859      -1.81101104007413
F        -4.93507227323052     -10.58747792321700      -3.44182248003598
F        -7.92149361038403     -10.40149327552273      -1.78666812068426
C        -6.94305505027739     -11.52507675988254      -4.04554802319994
C        -5.16641012636032     -10.82267861550446      -0.93595711821958
C        -6.58575392655821      -8.67544162775636      -2.53201676425089
C        -8.36800652708647     -12.14235179276675      -4.02898113616276
C        -4.12529434645377      -9.71367797933799      -0.67850222714041
C        -7.53978882539225      -8.13296950071489      -3.61493192059002
F        -6.07081954949060     -12.57515668725826      -4.30639072561273
F        -6.87608422485244     -10.67389523433748      -5.13058170144131
F        -4.43486095605747     -11.99692447620460      -1.08975027126167
F        -5.93198482324875     -10.93540596456717       0.21645145488242
F        -5.35939688046896      -8.08581170784873      -2.78097768234387
F        -7.02567689625690      -8.20385800658334      -1.30258908622340
F        -8.66166653412363     -12.61039256806864      -5.29777084258813
F        -9.33750017920635     -11.22366327741071      -3.68843046919767
F        -8.44481678962992     -13.21740354377452      -3.16165281594270
F        -3.27842391203571     -10.12857208254285       0.33461251369895
F        -3.35327186264282      -9.47093030714652      -1.79883662574009
F        -4.72533775088007      -8.54381057134530      -0.25903760875630
F        -6.95874015031144      -8.21594412745946      -4.86636183360881
F        -7.78971419697542      -6.79541716048960      -3.36269984766436
F        -8.74930603999568      -8.79137637639611      -3.61979266988308
