35
C9H20BF4N optimized with ForceField in AMS.
N        -0.41593390062225       0.17799470899880      -0.07139727894370
C        -0.98924384376388      -0.87801684109412      -0.96215159265854
C        -1.48038939968723       0.44842483894176       0.94281328359288
C        -2.45462839225545      -1.05635043746962      -0.61213356739894
C        -2.53209524298660      -0.63739613812048       0.82848487077309
C         0.81047641736797      -0.33773988882026       0.62028241557397
C        -0.13924607340639       1.41374648029208      -0.87325952553448
C         1.99590044150377      -0.65194118377141      -0.32518009953486
C         0.46790140475081       2.57600161957044      -0.06659852516920
C         3.11030054908244      -1.38053050724213       0.42000499416101
H        -0.50228394174945      -1.86842334998243      -0.80929190467453
H        -0.88801141901448      -0.64204044845829      -2.04646530580096
H        -1.99849254326686       1.41823829465316       0.75922525059580
H        -1.09347680268504       0.49119227146291       1.98664105318097
H        -2.78935815299376      -2.10794963871570      -0.74949476169364
H        -3.07828588142380      -0.38055161945483      -1.23813736223338
H        -3.54617695535055      -0.26386047401718       1.09069862173509
H        -2.26595983895806      -1.49324161406515       1.48775601106909
H         0.55232178616555      -1.26372064226306       1.18473186222648
H         1.16169133209853       0.38670927344866       1.38764120409037
H         0.54329716150021       1.19010955034475      -1.72173297906953
H        -1.08247818428648       1.77986523001200      -1.34071627039545
H         1.67291864038389      -1.28788239850873      -1.17437202394109
H         2.41944080850187       0.28619228068818      -0.73968190165178
H        -0.12892036208998       2.80466872835947       0.83910708280520
H         1.51261883460051       2.35373413030133       0.23058664936050
H         0.48972923698861       3.48693217142119      -0.70138803330273
H         3.55637287281008      -0.71501528109419       1.18925741852596
H         2.71945140701359      -2.29753507565453       0.90912110170553
H         3.90175851586451      -1.68077594911424      -0.29749333989766
B         6.43470549130820      -0.03313670699632      -0.89825662218817
F         5.84073806540465      -0.68514725665706      -2.01157367449537
F         7.68561782421786       0.51690835916898      -1.28451532619936
F         6.63360737845100      -0.97133271946679       0.14952622020584
F         5.57845802992621       1.00623538540279      -0.44659464431840
