40
C10H15F6N3O4S2 optimized with ADF in AMS.
N         1.07309267327674      -0.42765407218957      -0.90468038385388
N         2.32281908492070       1.30968919797827      -1.26037883822537
C         0.52522493327376      -1.65085098454457      -0.29364468525134
C        -0.52624198103788      -1.33738624256919       0.76816313080112
C         2.17118233680618       0.22198014019484      -0.48947349615105
C         0.50973575238911       0.26408767347933      -1.95758126071576
C         3.46565767767642       2.24095426151566      -1.20421323474550
C         1.30198013338092       1.35122782353524      -2.18841596390070
C         0.03505049361226      -0.56300337051489       1.95601092772085
C         4.60768061894037       1.76295931310176      -2.08531192365267
H         1.37887557176476      -2.18803897073111       0.14445440378724
H         0.10762839837135      -2.25180117540192      -1.11523967698859
H        -1.36891467947606      -0.79168937927739       0.30664738318977
H        -0.92511794531628      -2.30991630934821       1.10487394161928
H         2.84414566846465      -0.09553673726907       0.30557192350374
H        -0.39193768328659      -0.07649716143088      -2.45099986443037
H         3.07916017835536       3.22324549158426      -1.51404417767335
H         3.78225463548203       2.29474894555496      -0.15422736201704
H         1.23072660729059       2.13933034726910      -2.92791786254665
H         0.37203673248427       0.44273510553698       1.66074825906406
H         0.89419187779422      -1.08898201454947       2.39841851331181
H        -0.73281514752445      -0.43597953999159       2.73271192507494
H         4.98350839119627       0.79628140076385      -1.72348572877942
H         5.43171992198548       2.48932593027610      -2.03130587623970
H         4.29376042877773       1.66355337081237      -3.13530673367109
N         5.57069265630703      -1.51028090982150       2.24386900895712
S         5.35694291877694       0.08101455992590       2.23714273223410
S         4.59195833417967      -2.48093912597514       1.43029158520780
C         3.98266503792003       0.41473135796549       3.53797498080100
C         5.22669034429024      -2.43612303253338      -0.38567996834001
O         6.53608525930541       0.71351798593166       2.79698853778791
O         4.78212106730266       0.61046388163112       0.98687542589742
O         3.20175738258811      -1.99788810113429       1.31917331781112
O         4.83565931048326      -3.85231921631047       1.83478378130741
F         4.38415667614699       1.38937133440065       4.38202196529379
F         3.69338010548384      -0.68947338561607       4.25562273338296
F         2.84198216244177       0.83712691255771       2.92301543414243
F         5.19922611302752      -3.68395142942000      -0.90402392193345
F         6.48562239336206      -1.95923770492129      -0.46245091991989
F         4.42876297938256      -1.65043521096525      -1.17171565446002
