46
C12H26F6NP optimized with ADF in AMS.
N        -2.29125232281260       0.11995940917851       0.64167497418889
C        -2.75177426439745      -0.90403018106373      -0.38378725538110
C        -3.24161022389062      -0.16164473171609       1.79585174438974
C        -0.87114716922466      -0.15571512757423       1.08384200591927
C        -3.04683971872910      -2.17086056637830       0.41601423352528
C        -3.35012602832561      -1.68382346631311       1.85650727681673
C        -2.46561301870671       1.51862586334042       0.09454119343821
C         0.20351470960759       0.13290126507622       0.04775443756878
C        -2.09640138305081       2.61328101784366       1.07379171794942
C         1.56781854630501      -0.35899513686550       0.54013828650702
C         2.68761636707871      -0.07688449143143      -0.45994250950880
C         4.05343143150962      -0.56515663891813       0.02021437683707
C         5.16682359653284      -0.28044661227273      -0.98403347779040
H        -1.98569941781044      -1.00673496047737      -1.16137845879445
H        -3.67894560048514      -0.50288411877375      -0.81677017866769
H        -4.20779946787211       0.27822244593061       1.51088307562398
H        -2.85268298559143       0.30922123004260       2.70700826393465
H        -0.84423992323089      -1.21549377426855       1.37495362234816
H        -0.70362923239331       0.44252281150704       1.99203691555174
H        -2.19938430073055      -2.87227212797128       0.40016681844303
H        -3.91807819730651      -2.66972276937540      -0.02981692894710
H        -4.36929721839333      -1.95302503062543       2.16501263438290
H        -2.64304232990984      -2.11313485179280       2.58174890905420
H        -1.85678699854544       1.57056461768764      -0.81969823166834
H        -3.52504130306604       1.58077840080782      -0.19090471251345
H        -0.03118194486962      -0.36655794094195      -0.90749804801806
H         0.26470997445773       1.21470011115798      -0.15877344006481
H        -2.29664837334424       3.58033033425248       0.58848276468742
H        -2.71372365462312       2.57409967822046       1.98191196605699
H        -1.03402563544638       2.60037795701691       1.35739865413483
H         1.51723265343069      -1.44619391261927       0.73625164419751
H         1.80935524149170       0.12312763921282       1.50587593705302
H         2.73717211687990       1.01037980456834      -0.65909948512357
H         2.44556537930417      -0.55975449183252      -1.42573462405428
H         4.29097114522362      -0.08326707254391       0.98650670232015
H         4.00007312604347      -1.65122199318986       0.21984509221016
H         5.25644386203663       0.79997770650546      -1.17852657751525
H         6.14053868601771      -0.63797773827630      -0.61623116261583
H         4.96706921920698      -0.77783682056569      -1.94632078962808
P        -6.77638230870877      -0.22032081359154      -0.27477317559076
F        -7.99090808553575      -1.30962343247527      -0.22442562658026
F        -7.21166256396041       0.29130718116921      -1.76754967101837
F        -7.69589237145175       0.93234019961790       0.43646411397801
F        -5.47125614447280       0.87490203036002      -0.30554877813092
F        -6.24385451361347      -0.72049215987807       1.23199065230466
F        -5.76212119742748      -1.35959234156388      -0.96567258011033
