51
C13H24F6N2O4S2 optimized with ForceField in AMS.
N         2.00349203178314       0.44845379757099       0.10093495942863
C         2.25700863449161      -0.85013860662568       0.78441272762557
C         3.11071106689103       0.60393281960957      -0.89051410978391
C         0.69568315168750       0.44539897943920      -0.62330409124037
C         3.68370339756538      -1.26129957075302       0.48173451142929
C         3.94176041858422      -0.66763976755260      -0.87676921194788
C         2.05840941492614       1.56528313950826       1.07976108404368
C        -0.54590614972477       0.22963909438479       0.27246376836910
C        -1.80512251559383       0.09158283853205      -0.59249314464351
C        -3.05556224466282      -0.10175915755224       0.27184110408091
C        -4.31240696187205      -0.21362539325690      -0.59874047831777
C        -5.56155630119271      -0.39642126329867       0.25808047693793
H         1.59736481625758      -1.65795709372876       0.39237545785107
H         2.09563115920858      -0.80310387794613       1.88606153414823
H         3.78279990853813       1.45719385347921      -0.64490953512138
H         2.75224924089253       0.79654169191249      -1.92839344873036
H         0.70579847345261      -0.35239560197804      -1.40251368094598
H         0.56302427191906       1.41190152700556      -1.16260525582443
H         3.80148800902012      -2.36708349381082       0.47638282694445
H         4.37535217355064      -0.81267720441049       1.22867947056276
H         5.02200967729003      -0.45965029167073      -1.03665455897899
H         3.57485172605160      -1.36334828642261      -1.66450737055929
H         1.32231613905003       1.42987643273906       1.90010674482114
H         3.06059254743226       1.62367205396058       1.56141617172793
H         1.85619347524260       2.53983109364523       0.58152646299044
H        -0.43355534540530      -0.68651352250583       0.88939351532199
H        -0.68184899499631       1.09833791277726       0.95007569981615
H        -1.69071851927699      -0.78220008652839      -1.27171943756597
H        -1.92378078222869       1.00762423006097      -1.21266945972908
H        -3.16247627838800       0.76382033150305       0.96217366900289
H        -2.94290388473214      -1.02805815935951       0.87743449495656
H        -4.42813025420411       0.70796720397610      -1.21027600061448
H        -4.21645245409943      -1.08244086916409      -1.28619385880233
H        -5.69297510403069       0.47174834805050       0.93851845847097
H        -6.45470644827462      -0.47141409218541      -0.39732094482570
H        -5.48370975773594      -1.32657993721421       0.86022240621404
N         8.28817736465560       5.53287536542669      -2.02106356750024
S         9.57388711710625       5.29991950846336      -3.01201621941374
S         7.00053091873856       4.51814039820473      -1.97397036800097
C         9.30776133508106       6.19227665602428      -4.52981681526446
C         7.20325862649563       3.39038646538497      -0.61162427579783
O        10.81290617240773       5.83273258283862      -2.34926630978699
O         9.75557524851590       3.83796778790297      -3.31277192097817
O         6.88283569267748       3.74304478508244      -3.25698880225843
O         5.74759338152179       5.31855206727461      -1.75549820686364
F        10.39479825153127       6.02412463443244      -5.36618081566045
F         9.14839499091654       7.53641999085721      -4.25148887947638
F         8.17115858285073       5.71647867670517      -5.15429405476920
F         6.14023460832993       2.51019762849375      -0.57222185462531
F         7.25176972658877       4.10168482980570       0.57200526256381
F         8.37822652416637       2.68152075771235      -0.76906922438028
