60
C18H39NO2 optimized with ForceField in AMS.
N         0.00380183695432       0.00184477760671      -0.00188811063167
C         0.84445198411820      -1.03180177763741       0.70105319452230
C        -0.86503535014372       0.68660243493534       1.02077596590500
C        -0.82324559703309      -0.69039162800995      -1.05348475269419
C         0.85881960717888       1.04320098360642      -0.67526279342235
C         1.89755790123394      -0.48656950925535       1.70021549367084
C        -1.93012072997116       1.66557199804704       0.46192263737623
C        -1.89836439092085      -1.67819217207141      -0.53048128243885
C         1.94505868668020       0.50942940918619      -1.64488547453889
C         2.68330378434872      -1.64055758728265       2.33798853510773
C        -2.75127742277268       2.27834434590951       1.60472119224968
C        -2.67437089519147      -2.29955378939448      -1.69981467975751
C         2.75309406997614       1.67224564172558      -2.23793223252873
C         3.71356020473110      -1.12364389183894       3.33804724148389
C        -3.79154031921386       3.26112010832909       1.07477651975232
C        -3.72415155000568      -3.29013485166385      -1.20416198130165
C         3.80613156708601       1.17240947767515      -3.22216986859580
H         1.36562704425660      -1.68039629151557      -0.03789998993304
H         0.19414138620175      -1.71711484537985       1.28607458969492
H        -0.23647416968163       1.28394309752046       1.71555400596487
H        -1.37989179272879      -0.06344940488748       1.66162507853182
H        -0.16559994027248      -1.28199175020141      -1.72612520594119
H        -1.32232732640309       0.05522902702380      -1.71174170229244
H         1.35242962488087       1.69241149099273       0.08187703468531
H         0.22239682864321       1.72629155596831      -1.27769190306878
H         1.40216748825396       0.07877069815168       2.51529496680160
H         2.62049792432747       0.18290895481967       1.19224224752365
H        -2.62910255040143       1.14684328164550      -0.22443207592085
H        -1.44224728916813       2.49516095503679      -0.08873114698560
H        -2.62530873218882      -1.16474435951351       0.13035459198077
H        -1.42244453558263      -2.50247549076400       0.03835766678904
H         1.47623642359687      -0.04363612651521      -2.48404455747234
H         2.64970267711503      -0.16867738714549      -1.12290581660876
H         3.20957320274590      -2.21942942459982       1.54778771002399
H         1.98390365546026      -2.32406590117320       2.86766534922235
H        -2.07648112569867       2.81687421699384       2.30579784170051
H        -3.27250065797959       1.47312244745854       2.16721964523171
H        -1.97129820234002      -2.83341810337215      -2.37619878072002
H        -3.18263302492286      -1.49956768847395      -2.28134274766162
H         3.26139639193116       2.23102034436943      -1.42199516114420
H         2.07143446760750       2.37086493600497      -2.77096584808733
H         3.21251295074632      -0.55254021187422       4.14857512066587
H         4.45061456088193      -0.46775976371151       2.82777751479616
H         4.25412594706875      -1.98131353897168       3.79091727929297
H        -4.50427518946828       2.74127774274967       0.39979678719893
H        -3.29603087610847       4.08666780878728       0.52060514670636
H        -4.35881656752140       3.69541813820500       1.92476347933292
H        -4.46440196026741      -2.77502293002633      -0.55566715684285
H        -3.24135040808602      -4.11025962399045      -0.63104470882788
H        -4.25777123509844      -3.73103430863904      -2.07234781107700
H         3.31960692818654       0.64127833524528      -4.06754358800830
H         4.51597735933056       0.48644557801568      -2.71275408359730
H         4.37500657365320       2.03498130417318      -3.62827929028117
C         5.30466755419021      -2.01496562228295      -4.63497544134894
C         5.70074213202187      -1.52376314839140      -5.99134775836648
O         5.02606661642902      -1.81497240986336      -6.96570606023470
O         6.69713727865107      -0.83211841131730      -6.12937690761752
H         4.29680664676263      -1.62867041370744      -4.37845638234920
H         5.27698940463020      -3.12465029971356      -4.63216680770607
H         6.02894510569026      -1.67097886089792      -3.86570084100853
