39
C11H21BF4N2 optimized with ADF in AMS.
N        -2.04334971065153      -1.12192497993940       0.01061696298712
N         0.08422218458397      -1.55072165191420       0.01072475100382
C        -3.40909208130003      -0.93085217721814       0.51538618764117
C         1.41450083541626      -1.90770087266561       0.51860234148949
C        -4.03780359679936       0.36183091058883       0.01325760069397
C         2.52377599728138      -1.11983105375027      -0.16361316318863
C        -0.94934114327661      -1.18652862320913       0.77456982352389
C        -1.70334876443345      -1.47845084006497      -1.27693924606264
C        -0.36780346057578      -1.74962405780298      -1.27804561208240
C        -3.30438627139572       1.61957205338057       0.47355898196465
C         2.41772555423958       0.38850361045198       0.04839019992320
C        -3.95960015408425       2.90184419598979      -0.03479161234937
C         3.53325704361721       1.16004324246458      -0.65193523139366
H        -3.96656434169194      -1.83198813846550       0.22171647260407
H        -3.33566432399963      -0.95343178330493       1.61212367562911
H         1.39555766676677      -1.70770561243190       1.60006733741897
H         1.50926419527699      -2.99628122388490       0.39191896781480
H        -5.08032720208133       0.37976124226682       0.37669621903416
H        -4.09810514198823       0.34516138645812      -1.09022661370096
H         2.53647438132703      -1.34832439519995      -1.24467629365292
H         3.48317381011137      -1.49267475751252       0.23603759601047
H        -0.92425339165590      -1.05909271787955       1.84664255773170
H        -2.44394765558098      -1.56936644753097      -2.06030050397665
H         0.27849909325450      -2.11730933107571      -2.06349828868217
H        -3.27040239978862       1.63166389919395       1.57827216114180
H        -2.25628236000432       1.57832630341263       0.12750295446122
H         1.43722553534149       0.73986223882092      -0.31902142567680
H         2.44017654217187       0.60157854134197       1.13276431718160
H        -4.99759181547819       2.98495263191367       0.32413273204270
H        -3.98455233899426       2.92286068598748      -1.13601620774024
H        -3.41381692841306       3.79420569660299       0.30656627646133
H         3.51241077074772       0.98349206841774      -1.73914615806153
H         4.52293639465762       0.84876432777660      -0.28172908673468
H         3.43727027617265       2.24335139348598      -0.48489471030243
B        -1.82549652164592      -4.23423685320471       1.23229600441951
F        -2.14947172922584      -5.46281339283217       1.80852921780235
F        -0.50645892329790      -4.25648511211808       0.67245250330078
F        -1.86513957849173      -3.19097531704903       2.23789948936105
F        -2.75403607581185      -3.88826348420001       0.19762708776215
