36
C10H23NO2 optimized with ForceField in AMS.
N        -0.00096756104723      -0.00137991032272       0.00123108488399
C        -0.84632048818260      -0.26188507272577       1.21907788478564
C        -0.85152415089012       0.26000205758631      -1.21286570511625
C         0.84504814438860      -1.21818508880173      -0.26203869295713
C         0.84897610755754       1.21421340776156       0.26027788288432
C        -1.90433916422445      -1.37485524258608       1.07882414219460
C        -1.90881372251144       1.37254039744238      -1.06778270216393
C         1.89214518515125      -1.07765622911602      -1.38394810272310
C         1.90915383336273       1.07122215437741       1.37073246277682
H        -0.20689764006132      -0.56100553625716       2.07682091727569
H        -1.36588765086848       0.66539222313072       1.54662799987154
H        -0.21576030679063       0.56019571734570      -2.07300991430509
H        -1.37221806240816      -0.66712124797246      -1.53919716434039
H         1.37227783644254      -1.54242519580080       0.66210601490209
H         0.20631800278160      -2.07837772724897      -0.55506442955797
H         1.36713618777328       1.54188181847067      -0.66770875678140
H         0.21299831264551       2.07384312945373       0.56096589390789
H        -2.46359521524709      -1.45805860468760       2.03475012465284
H        -2.64673793807728      -1.15384798717228       0.28769588412163
H        -1.43852507888865      -2.36256059806890       0.89336881119816
H        -2.47141093014716       1.45604638855436      -2.02178532851882
H        -2.64851591055055       1.15056115715029      -0.27444477985583
H        -1.44176898734562       2.35978670405412      -0.88298399425627
H         2.46672201915479      -2.02514325088863      -1.45928819126580
H         1.41654235913624      -0.90869167349815      -2.36987274145412
H         2.61923029262524      -0.27133920603710      -1.17812109327742
H         2.47307091275386       2.02480025136770       1.45094725138584
H         1.44433023051796       0.88908138763557       2.35957641855659
H         2.64746357308756       0.27672304989915       1.14935215958843
C         7.02503071939145       1.28781577295978      -1.14196993915208
C         5.63919316576264       1.29650837780927      -0.58013823979005
O         5.10484459038727       2.35215388901649      -0.28094768343976
O         5.04526218052681       0.24568429966748      -0.40485498671397
H         7.19479614914541       2.19396431279513      -1.76077957215988
H         7.76050592633107       1.27005704354408      -0.31126198089535
H         7.17555696501743       0.38991494576247      -1.77809670296147
