24
C6H15NO2 optimized with ForceField in AMS.
N        -0.01325608873055      -0.00854302168241       0.00855961497252
C        -0.92858441956916      -1.12906907581834       0.31882061450207
C         0.62660882818433       0.46579775878392       1.25553080569366
C        -0.77912535535150       1.09878250791857      -0.60538726573596
C         1.02806790059532      -0.46996614121224      -0.93561437506981
H        -0.37774965564156      -1.97726920723314       0.78401376821224
H        -1.72532289905028      -0.80894510753293       1.02726873768555
H        -1.42300986082705      -1.50769413179558      -0.60390050733487
H         1.32190512931285       1.31070102091111       1.05081291170280
H        -0.13573984645263       0.81954797722908       1.98549988701209
H         1.21122310409198      -0.34891516906995       1.73889882654741
H        -0.11295522724692       1.95581697206739      -0.85219993602004
H        -1.27370960702398       0.76825302338651      -1.54636529565125
H        -1.57023820868527       1.46791991676049       0.08523182404075
H         1.73727548691860       0.35203394741693      -1.18130283469729
H         1.61556613324250      -1.31073263810794      -0.50260173423260
H         0.57240987629754      -0.82329604086589      -1.88757472391890
C         2.47435447347643      -3.61537323551611      -3.15457464490349
C         3.37359544759354      -4.17955096932725      -2.10081877618486
O         2.90863535144511      -4.53721526687607      -1.03059615562142
O         4.57208515614370      -4.28511668356526      -2.30606674149803
H         1.71649127292396      -4.37334753841358      -3.44395765400288
H         1.95803340169858      -2.71647384559026      -2.76054826879563
H         3.05741158525447      -3.32672162226706      -4.05529109400206
