55
C15H32F6NP optimized with ForceField in AMS.
N        -1.08365693878861       0.82508679119991      -0.18625389435275
C        -1.56867943546352       1.86480706755185       0.78031311956789
C        -2.05902030353322       0.73596782462645      -1.32155307689460
C         0.21907775330432       1.28964309236621      -0.77718941495466
C        -0.93161730306965      -0.49143425347643       0.52710741628979
C        -3.01610712980470       1.64498611285819       1.26783302412227
C        -3.50562434779299       0.44895309903849      -0.88583212121141
C        -3.98679156802477       1.50895673622721       0.09875241082470
C         1.41738763353224       1.36725586654776       0.20217339880782
C        -0.34397806762888      -1.65057228355522      -0.31575119379188
C         2.67010685283586       1.88617709997323      -0.51761402079340
C        -0.21591772357614      -2.92179360184372       0.53430685998918
C         3.87760870697170       1.92351206952728       0.42670856891718
C         0.36707871616012      -4.08120206201813      -0.28196746720699
C         5.12307189456371       2.44449547672724      -0.28481144145878
C         0.47770869807880      -5.34748730310288       0.56226608267983
H        -1.52343271150823       2.87853576043099       0.31925585237714
H        -0.92634785839578       1.89737637609264       1.68644931468611
H        -1.75192220043691      -0.02801935499531      -2.06593668524713
H        -2.07787590603410       1.69866043756962      -1.88553170084713
H         0.08985940505623       2.30228169727985      -1.22554250963439
H         0.51058698237418       0.63797368329525      -1.63102069937029
H        -1.90462440080022      -0.84255448315783       0.92156035138718
H        -0.30215397858566      -0.36295224716231       1.43439778728351
H        -3.32457923644292       2.51817189104506       1.88393588126409
H        -3.08213448977118       0.75350682308838       1.92559382960451
H        -3.60084694014031      -0.56523276153652      -0.44729624058990
H        -4.16293778300533       0.47202842168346      -1.78245838057023
H        -4.07684535057811       2.48742186667332      -0.42328542398044
H        -4.99150059557572       1.22905131545811       0.48169665190605
H         1.18973352480034       2.05491851515017       1.04188252132099
H         1.65046942215414       0.36425720465536       0.61419878454261
H        -1.00631292774341      -1.87866746668815      -1.17538285452695
H         0.66393616865387      -1.39056515953026      -0.69782819684968
H         2.47349180903496       2.91086547116160      -0.90319532684402
H         2.90155195197245       1.22284244717715      -1.37916143441731
H         0.44776401416160      -2.71723501260449       1.40312482400459
H        -1.22007542382198      -3.21150190986570       0.91579549842569
H         4.08739314995410       0.90066468692586       0.80846256060691
H         3.65667286140443       2.58600376542304       1.29157492097845
H         1.37898447793519      -3.80750600951274      -0.65254252460660
H        -0.28568743491832      -4.29073403068606      -1.15728571920287
H         5.96944567560794       2.48796199995012       0.43309015896167
H         5.40363117757455       1.76696973261017      -1.11864255031951
H         4.94384672490233       3.46589149742227      -0.68400934149729
H         0.90481071467484      -6.16726461560012      -0.05289746069457
H         1.14350865188786      -5.17354593039258       1.43450309153056
H        -0.52567747676075      -5.66001224565544       0.92276577291504
P         4.71628367735982      -0.75634190895330      -3.93993268242949
F         3.78868404742729      -0.34361968348311      -5.32474054161944
F         6.19518458995169      -0.56873647093114      -4.79258900758561
F         4.74631979823826       0.91623953518736      -3.55451702219821
F         5.61343693788235      -1.14747993740332      -2.52868513798963
F         3.28644584641013      -0.99045867007599      -3.01777557139776
F         4.67345586213614      -2.39344779329287      -4.45682714551084
