44
C12H26BF4N optimized with ForceField in AMS.
N        -1.62637783722667      -0.29288675278993      -0.17965724815279
C        -1.91298261518232       1.11959473495140       0.21655154964339
C        -2.62869340272713      -1.21743262667496       0.43966027709429
C        -0.28372624725850      -0.70481554333852       0.34861447150122
C        -3.36085904866645       1.55665556770342      -0.06676381022214
C        -4.09672082523994      -0.82532098081607       0.18489753497488
C        -4.35655483085092       0.61722350166206       0.60387893601635
C        -1.64440404781358      -0.44482122699020      -1.66046328753884
C         0.93016203574699       0.08448187831303      -0.20410760705500
C         2.23182524888885      -0.43417036180546       0.41876509702512
C         3.45825862711353       0.29199255065670      -0.14569085369107
C         4.74748523068431      -0.26226760147846       0.47354992949518
C         5.98164145256933       0.43581713112084      -0.08947111096288
H        -1.24990455679120       1.82619853001793      -0.32666167125273
H        -1.71936207291708       1.26103082708883       1.30456237489230
H        -2.49039539582993      -1.25217345146536       1.54562459556543
H        -2.47818700134893      -2.25733383930365       0.07035075691006
H        -0.26775937738284      -0.60742571108822       1.45925910322648
H        -0.11038593023526      -1.78491028681202       0.13104909584301
H        -3.51206740423995       2.58336299661874       0.33063408856305
H        -3.54946903044543       1.59692325316578      -1.16029180246282
H        -4.37412987910321      -0.97273951974355      -0.87892106847649
H        -4.75518988383237      -1.49446363523666       0.77970272867720
H        -4.26976557090222       0.70706265225372       1.70879080525535
H        -5.39016299380863       0.90593201095978       0.31440838740678
H        -1.01815557123443       0.32600403783544      -2.15752303033864
H        -1.27763708698798      -1.45118510795877      -1.96304934030718
H        -2.65876939916297      -0.32243286311396      -2.08604247023926
H         1.00368041155239      -0.03846801780072      -1.30405174312839
H         0.83755752186865       1.16344543425840       0.03599780613520
H         2.19467137171913      -0.28767883920720       1.52084777208345
H         2.32789427909248      -1.52074437778102       0.20628192094958
H         3.37821283631151       1.37919429551181       0.07540342944700
H         3.49221710481320       0.15620180068857      -1.24937674651480
H         4.82586228878523      -1.35155449885051       0.26377580288564
H         4.72488570397873      -0.11905173587154       1.57593965897338
H         6.04594332749219       0.28112166024212      -1.18778676185470
H         5.94312175902596       1.52467085263129       0.12744305520856
H         6.89381492545604       0.01203953144230       0.38189745451397
B         1.82598896199818      -3.81626633808613       2.35899358435198
F         2.19358657162269      -4.89370299703171       3.20777656623004
F         0.41033569587998      -3.74327452311864       2.27018234793492
F         2.37115053768307      -4.02812999856812       1.06479545056401
F         2.33003134410551      -2.60171982629075       2.89470399122988
