44
C10H20F6N2O4S2 optimized with DFTB in AMS.
N         0.97974282881893       0.30045178663379       0.37160368059008
C        -0.26710348157872       0.83183432746256       1.02222992534291
C         1.05083022996858       0.69030464509949      -1.08765145289501
C         0.97052558458005      -1.20493973946409       0.45900862901074
C         2.17207074961203       0.88493309694542       1.08828865614906
C        -1.57231928441918       0.44152209292557       0.34399058094193
C         0.89044001199075       2.17556688062655      -1.37092700705328
C         2.25088413003880      -1.88958733678692       0.00574063382378
C         2.32223237146157       0.48823562890095       2.54700954284577
H        -0.27154687894223       0.46063359325187       2.04926407981956
H        -0.17281884667828       1.91941893616101       1.05046775628425
H         2.02703705682861       0.36488909727686      -1.45059193055979
H         0.27790150535271       0.12070172866184      -1.60854492576498
H         0.75431406554924      -1.46403980169242       1.49839822506961
H         0.13947172395341      -1.54992729372329      -0.16004642737327
H         3.05671314846014       0.58372377642329       0.52562929808393
H         2.08551806136215       1.97024167132694       1.01547027060939
H        -2.38389509696023       0.89227248396212       0.91526720119279
H        -1.62986062406867       0.81310287293084      -0.67681481704507
H        -1.72043245069632      -0.63679943123780       0.33806192425746
H         1.00450560675092       2.30583600085607      -2.44703170275887
H        -0.09041621130580       2.54880430413413      -1.08137305016760
H         1.66086997906766       2.76586267005401      -0.88056429240613
H         2.09165509856605      -2.96429659923991       0.09478263194050
H         2.48941805362137      -1.66480417907829      -1.03136474418615
H         3.10083812390287      -1.61982437613327       0.62784423923041
H         3.25048465837885       0.93863612841022       2.89910422218245
H         1.50793670135347       0.86602034704596       3.16373514247425
H         2.39993789923829      -0.58936579614256       2.67814860466866
N         3.98101017711298       1.55601255339558      -1.25277108123372
S         4.88084264088719       0.44244987898404      -1.97432807564311
S         4.69871233211181       2.78602198847637      -0.50413152215588
C         5.84834883702607      -0.47691133275905      -0.64994802433379
C         5.34545244938363       3.96697987226414      -1.80684163657480
O         3.92858754382377      -0.55135221463876      -2.42785519431798
O         5.85806479740942       0.93694762486897      -2.90574678922581
O         5.83100847864294       2.42279355032809       0.31046549824626
O         3.61281880962785       3.51056900722995       0.12701568362158
F         5.94366879284918      -1.75165020871581      -0.99820124973196
F         5.16701505503936      -0.42179822612551       0.50085244801033
F         7.05191721317161       0.01141299588400      -0.46587306018206
F         5.32446276437353       5.19540658460721      -1.31558592685721
F         4.55785180318918       3.92028614137144      -2.87070688328584
F         6.57645137474449       3.66159655703839      -2.15468220564335
