50
C14H15F18N2P optimized with ADF in AMS.
N         0.96665878628067       0.83073771527156      -1.66334317650418
N         2.43868861883377       0.49818654819881      -0.09677421685055
C        -0.24947002573227       1.28124308944528      -2.36156313735502
C        -0.24514887800094       2.78281115039056      -2.63927360769345
C         1.18716178770215       0.91097167042732      -0.34383578618185
C         2.11242156711760       0.37187824088393      -2.27268037598330
C         3.05893003122232       0.49993388709681       1.24556920550816
C         3.03689676848069       0.16498861247572      -1.29121366280648
C        -0.41057269391402       3.64008325651045      -1.39183718514594
C         4.36477181865836      -0.26721932224414       1.28101214688497
H        -1.10947643809818       0.98970422861543      -1.73789318385046
H        -0.29830435363549       0.70078741380833      -3.29376114854072
H         0.68796400116444       3.05284357098666      -3.15749405202944
H        -1.07595886529793       2.96794685509454      -3.34234597447284
H         0.48167501919781       1.26403939299678       0.39670842619282
H         2.19585665306526       0.28238415503100      -3.34779221918719
H         3.21286115401053       1.55314364898126       1.52038408215845
H         2.32294937778534       0.05231056028200       1.93070112004228
H         4.06977570163471      -0.14453273348997      -1.36089798115880
H         0.44425751720781       3.52835974776261      -0.71139905796184
H        -1.34372864312821       3.39747988761462      -0.85589311760248
H        -0.43954372517395       4.70362013118539      -1.66800429462601
H         4.22778050369868      -1.31356578567069       0.97035667492805
H         4.74219813948369      -0.26375538526464       2.31361832772680
H         5.12668701983318       0.21278862351153       0.65266275128169
P         3.88092139671520       4.26385259540770      -2.04341140829154
F         2.68913667362979       5.00364607727191      -2.93831529457625
F         2.80479330141664       3.09716297995918      -1.47506842744148
F         4.99154581194695       5.36600736619619      -2.57504431633740
C         4.09777281513322       3.14703000727357      -3.66288600745574
C         3.27396542526500       5.46858108069996      -0.51212940383882
C         5.36982938248467       3.47145720734211      -0.90253400880866
C         4.75175285438560       3.76539684141144      -4.93578162864967
C         3.08923792679350       5.03315573465165       0.98769483997941
C         6.61723474419389       2.64044552438978      -1.36100862071111
F         2.84437566256523       2.72725853322472      -4.10079119149345
F         4.79471355185875       1.97927315015131      -3.41038090774480
F         1.98965443920847       5.88524507771909      -0.82290513386543
F         4.05507727221912       6.59683253088741      -0.45695688760180
F         4.81746969978207       2.67986200414430       0.10563813119898
F         5.93727344515878       4.56233514350309      -0.28474779552010
F         4.69136547234610       2.84660714607606      -5.94957017199117
F         6.05229503236581       4.07000658747208      -4.74725629119867
F         4.09535518012123       4.87081395873826      -5.34352187935137
F         2.43166402035012       6.02665097285143       1.64776507960301
F         2.31618535778208       3.90665899614959       1.09775829692391
F         4.23800526264268       4.81233805906672       1.65762663728311
F         6.32635897171882       1.31679241984660      -1.52984095136356
F         7.56574520440077       2.68944358587663      -0.38331859680400
F         7.16154661981950       3.11994991678811      -2.49228330841608
