53
C15H17F18N2P optimized with ADF in AMS.
N         3.22554473451723      -1.01448177599443       0.64034971169701
N         2.60083753507085       1.06678794471335       0.61314904779369
C         3.53374871879668      -2.36916228713278       0.15430427198455
C         2.13462398886631       2.36501263530687       0.09948793587591
C         2.59125113705512      -0.07726835213416      -0.07741871755454
C         4.75948075551149      -2.36979323181871      -0.75234258514348
C         1.17903212182539       3.05483631224301       1.06296688696170
C         3.66497099588010      -0.44347676593335       1.81555919957062
C         3.27221301947353       0.86336002976734       1.79844371664717
C         5.05923395148450      -3.77025718186049      -1.27339482109621
C        -0.08767414984762       2.25182595930712       1.34083741119074
H         2.63863639176067      -2.74001898646208      -0.37057404810650
H         3.68174142526617      -3.00136782243510       1.04335241561470
H         1.64548201180194       2.15935602717604      -0.86448465090924
H         3.03529483487421       2.96375662445115      -0.09592961589750
H         2.17283597707414      -0.21472896755475      -1.06568992490645
H         4.58995032791403      -1.67358931412074      -1.58912844754010
H         5.61897778872649      -1.96515727585478      -0.19808567515864
H         1.70709725887129       3.28753134408672       2.00361114949974
H         0.92793562638774       4.02910031414960       0.61167717900086
H         4.24847080654114      -0.99806951628788       2.53964805816120
H         3.46626843778027       1.66838251883878       2.49503058946267
H         4.22408397500919      -4.16717502931413      -1.87230746931868
H         5.25480296613830      -4.47466125538762      -0.44943075058605
H         5.95254664440366      -3.74836878682622      -1.91335654648505
H         0.14647258137420       1.27790775410739       1.79930340192005
H        -0.64757152848711       2.06540158279602       0.41013946318651
H        -0.75139402320655       2.79416673254962       2.02960213275858
P         6.64927411109085       1.75811326365019      -0.89916572064477
F         6.44597777983317       0.21015872611245      -1.50882680981105
F         8.11721506924621       1.88660694580374      -1.64755360749531
F         5.14803956647222       1.67102287617077      -0.12207476412703
C         5.69933417041129       2.40882482997500      -2.52066715673528
C         7.43643314995876       0.83562318289526       0.68298445719765
C         6.94791929662875       3.60905225257434      -0.18864055495073
C         4.89661639319240       1.38335590887671      -3.38730061161294
C         8.86071432207145       0.22134358870641       0.54845194285421
C         5.95270020234476       4.28229680982517       0.81339312951375
F         6.54974713139614       3.00076845575145      -3.42085934911767
F         4.74661933708420       3.35513265725075      -2.16665579310273
F         6.61722445846605      -0.24381293221814       1.01469973630974
F         7.47526443095740       1.60721278362289       1.82100903208051
F         7.02011520436060       4.49754805265567      -1.24151462283803
F         8.17758420849037       3.65165009459521       0.42723615976427
F         4.19070227617778       2.05370443659769      -4.34239111451314
F         3.97591579038628       0.69008462873512      -2.64265204223963
F         5.68673951330543       0.49620368755689      -4.02038224093405
F         8.94648061721515      -0.62626548865575      -0.50221854806754
F         9.80516629932008       1.17625904798146       0.42504148410018
F         9.14710040575363      -0.49791402563819       1.67813298521489
F         4.75398620559885       4.55460143221623       0.22825031063698
F         6.46840777042801       5.46546691497581       1.23945926627267
F         5.70170306524678       3.52929342100707       1.91417611192180
