34
C8H15F2N3O4S2 optimized with DFTB in AMS.
N         0.60960467213330      -0.16768817003077       0.94150526049047
N         2.00735555638156       1.26219873217440       1.74316502927163
C        -0.55075570965821      -0.74074541158137       0.26869110553361
C        -0.38533616699334      -0.68286001326452      -1.25539601302275
C         0.79523711585553       1.12585549487580       1.20615791719470
C         1.73709139017929      -0.86110154628344       1.28527881882509
C         2.63048375981525       2.52701379901956       2.13114496035607
C         2.61384970737344       0.04154384632390       1.79797413582480
C        -0.56187015809758       0.72604043635028      -1.81223955342205
C         2.63903831824158       3.50670249960178       0.96477330907696
H        -1.43962627319559      -0.18941104768998       0.58925683340955
H        -0.63744253271122      -1.77878860552840       0.59989344394715
H         0.60465948175776      -1.06239495154215      -1.51974776363586
H        -1.13690202391326      -1.34802724006330      -1.69043656691220
H         0.07897538180392       1.91201367485882       1.04545605705919
H         1.82997414570192      -1.92105977210243       1.12910265696034
H         2.07791935592444       2.93268109119383       2.98523759358616
H         3.65243567985616       2.29573484417702       2.43743876118052
H         3.61601999018925      -0.08604816394101       2.16554459420434
H         0.19620204209019       1.39497805578550      -1.40700550907871
H        -1.55021520101510       1.11866016649973      -1.56775149950424
H        -0.44993990862546       0.70294794847609      -2.89540612034402
H         3.16903749321115       3.07167588818457       0.11996511586390
H         3.15224128453715       4.41610510856978       1.27378391264910
H         1.62446308008809       3.76026280340272       0.65893870029003
N         4.91521455256394       0.42110221046983      -1.86600329878251
S         5.38899433251463       0.37642835599738      -0.35473544923125
S         3.42327631458988       0.88594756571199      -2.12370090358225
F         4.68321671028260      -0.99558956810408       0.21903647059129
F         3.49659747135299       2.51137082896497      -1.97835580247397
O         6.77926035583550       0.08397587124342      -0.31956978165088
O         4.87024972822237       1.38467800022785       0.53144296391345
O         2.44532851096191       0.52417414402023      -1.12878876786246
O         3.10255726764592       0.67298617520203      -3.49360912902523
