40
C12H26ClN optimized with ForceField in AMS.
N        -1.90587698356624       0.09298091497440      -0.04553553875941
C        -2.10050548236411      -1.12345727985174      -0.89242087734163
C        -3.01704123332380       0.05097501199559       0.95502613332151
C        -0.59195817674687       0.02182114477696       0.67212834008384
C        -3.46196411326932      -1.71066539403621      -0.57305566797380
C        -3.69805221290098      -1.30076780068430       0.85308783063513
C        -2.02581547501865       1.31842996520436      -0.90019213957062
C         0.65234036968239       0.05412505705967      -0.24770856288655
C        -1.82131985116442       2.64691861722375      -0.14893081791861
C         1.93443889699326      -0.11997037499419       0.57622850288073
C         3.17898955411912      -0.10633913532870      -0.31910195454875
C         4.45923579946285      -0.19497598328414       0.52011844579192
C         5.70037210247281      -0.21979004011585      -0.36666224892834
H        -1.34996446926015      -1.91644195018384      -0.66897371884489
H        -2.02347805790815      -0.91615502001479      -1.98457158055958
H        -3.79711415629766       0.82083985822019       0.75312633076635
H        -2.67352760985438       0.22201316023237       2.00136502653820
H        -0.55268045823622      -0.91329662786402       1.27800154453066
H        -0.50545249946686       0.85364195027013       1.40599515097304
H        -3.47609469031005      -2.81659531614207      -0.68842524674449
H        -4.23488298323179      -1.25483118827087      -1.23076360521539
H        -4.78340158122766      -1.23917668688380       1.08707663285303
H        -3.20709523137960      -2.02471265809811       1.54075903138658
H        -1.30374896325441       1.28493603996578      -1.74490221102649
H        -3.03236657719437       1.34849858866887      -1.37687585278484
H         0.59918274948258      -0.75296698338802      -1.00792059884081
H         0.71291556549693       1.02702066400024      -0.77689324666469
H        -2.05847515500681       3.48979494398664      -0.83140226375547
H        -2.48579427224043       2.72614545446043       0.73512065102375
H        -0.76724420072916       2.76841855062694       0.17237187698895
H         1.89317685083211      -1.08535202472921       1.12707190495393
H         2.00362443017047       0.70600386648479       1.31818105253457
H         3.19730945922405       0.83311373770527      -0.91422312168918
H         3.13507485115990      -0.96907231268711      -1.02029120982186
H         4.52157525845358       0.68197783221524       1.20086227863102
H         4.44130542982054      -1.11804534381986       1.13895929576667
H         5.75744155088478       0.70715530360466      -0.97606604124970
H         6.60949008126714      -0.28521838287881       0.26766543043861
H         5.67523072422381      -1.10210203434416      -1.04097411337486
Cl        6.54704081580580      -3.61073811977648       1.36490253040148
