40
C10H15F6N3O4S2 optimized with ADF in AMS.
H         1.21658937236126      -0.35863855953158      -5.54661404560243
H        -0.54766601033721      -0.64376031047800      -5.39519312094037
H         0.58273824981090      -1.98780696317452      -5.08565568208328
C         0.43879957113252      -0.90458250136955      -4.99869314041411
H         1.83982958867500      -0.07351000048406      -0.64119579768352
H         2.63046265176773      -0.55288008913139      -3.26539378177487
H        -1.59221213149903      -0.49649248542750      -3.08419634504167
N         0.49978104085784      -0.52434548672635      -3.58939981128586
C        -0.55981875644133      -0.36772361766670      -2.78698266471721
N        -0.12039943215434      -0.14705942726779      -1.54293571898395
C         1.25758916009776      -0.18977573382602      -1.54541037364869
C         1.64644510035775      -0.42713999842399      -2.83111819164426
C        -0.98587111524790      -0.05709083659727      -0.35524848234106
H        -0.90995310046847       0.96644766062626       0.04629070537258
H        -2.01300720902872      -0.21172206700794      -0.71667822593297
C        -0.63169506792920      -1.11625022330911       0.68223431910984
H         0.33435625013376      -0.87069595032439       1.15922011053730
H        -0.50509616704415      -2.07747125963028       0.15937086606606
C        -1.71563640399857      -1.23804406127798       1.75173677290887
H        -1.82775655033763      -0.28045114633029       2.29265075764386
H        -2.68148198371042      -1.44198418815961       1.25673340641735
C        -1.40725001356248      -2.36559664813610       2.73352922234094
H        -0.45247051779608      -2.19019385253573       3.25420006361219
H        -1.33197055136927      -3.32681516090356       2.20138320699983
H        -2.19662009037275      -2.45819975701828       3.49411217407193
N        -0.52693752936561      -5.08599353751321      -3.18205666864399
S        -1.09765215946737      -5.80081481638119      -4.53150193608801
S        -1.05874713456834      -3.69519786746998      -2.65057987242644
C        -0.16057988982114      -4.89743356803180      -5.92855528542819
C        -2.42604789011126      -4.08569241696615      -1.41227508955159
O        -0.53286688070987      -7.13813331420730      -4.55937425688857
O        -2.50183250095962      -5.56114388390845      -4.82791728712942
O        -1.72916334796329      -2.81329736334175      -3.62011186703766
O        -0.02470200708577      -3.09719366526403      -1.79925907942968
F        -0.03051740453701      -5.72592101114348      -6.98797898054654
F         1.08575822968266      -4.50914617993637      -5.53562694260804
F        -0.82270428144484      -3.78532776078681      -6.34173885566871
F        -2.95409694570233      -2.90029025897769      -0.96592233124370
F        -1.94055775379386      -4.74835486620373      -0.33675948978461
F        -3.41730232474930      -4.80619788815635      -1.96230382501137
