60
C18H36F3NO2 optimized with ForceField in AMS.
N         0.00122833400589       0.00062813783586       0.00145764576328
C         0.84639919705143      -1.03038274529310       0.70315772763340
C        -0.86960524582058       0.68208626444678       1.02484503468395
C        -0.82441224838407      -0.69416574044399      -1.04988274156274
C         0.85239194009980       1.04515576817728      -0.67222696104187
C         1.89844210102521      -0.48359735753499       1.70344090627637
C        -1.93790912386510       1.65996552491969       0.46822454686880
C        -1.89458027135366      -1.68899930876328      -0.52863704055409
C         1.93885630905518       0.51638373264315      -1.64508611679727
C         2.67190574313344      -1.63756219811126       2.35787704909038
C        -2.74365905893249       2.28938152969916       1.61397765016373
C        -2.65007891327535      -2.33221217395187      -1.70070166071601
C         2.71819310193123       1.68402725532952      -2.26772453453472
C         3.70679853138867      -1.11841412709292       3.35281141560873
C        -3.79107202380551       3.26671046232228       1.08559845338244
C        -3.69991782071433      -3.32510932812439      -1.20758731949507
C         3.76630704881358       1.18729349519093      -3.25993986922415
H         1.37097601353512      -1.67447538104649      -0.03732949419764
H         0.19844487745487      -1.71918486854767       1.28697669991642
H        -0.24199541185605       1.27948918192832       1.72066602958584
H        -1.38350285727786      -0.07059327688149       1.66331732901197
H        -0.16479078247416      -1.28160431643002      -1.72427023290425
H        -1.32862272634458       0.05048999211746      -1.70528642010508
H         1.34659717549033       1.69378107257764       0.08502921485993
H         0.21231201144761       1.72716029645257      -1.27221176317149
H         1.40480280659096       0.09319219563134       2.51121280145080
H         2.62891492625058       0.17490496842081       1.19152336043190
H        -2.64614717417367       1.13499331424649      -0.20403302068946
H        -1.45552138649132       2.48290131572834      -0.09653197898265
H        -2.63382902367685      -1.17516588035363       0.11838485257837
H        -1.41792744088258      -2.50321471966028       0.05343635761955
H         1.47423869307652      -0.05838883456635      -2.47128893712845
H         2.66106172352094      -0.13938138636072      -1.11789480654391
H         3.19129638001083      -2.23325402618526       1.57575687477872
H         1.96428379072975      -2.30637894229011       2.89553601498589
H        -2.05847527679567       2.83650992958386       2.29819736147375
H        -3.25573189086500       1.49193052822626       2.19543688807187
H        -1.93305974412484      -2.86931344233899      -2.35980574897460
H        -3.15390361119936      -1.54349813980823      -2.30101154207917
H         3.22527117539176       2.26563327131409      -1.46709698417175
H         2.01691946631221       2.36152298615987      -2.80248831107993
H         3.21013604763747      -0.54004910411856       4.16101575498859
H         4.44406903566817      -0.46759671606696       2.83721777338263
H         4.24678223095691      -1.97430784093905       3.81084305855393
H        -4.51076827083617       2.74071625426739       0.42279744712786
H        -3.30274060584199       4.08775962983547       0.51827518649135
H        -4.35087711199264       3.70980571448465       1.93660864029725
H        -4.45029431336236      -2.80961071593113      -0.57110104122174
H        -3.21890380362563      -4.13784923815957      -0.62235573635461
H        -4.22280211781981      -3.77766479055402      -2.07691380449801
H         3.28170558092547       0.63027132494298      -4.08970722785784
H         4.49178631441900       0.52074150427844      -2.75217554586695
H         4.31780557668856       2.05196816521950      -3.68625999087074
C         6.94748823989824       0.09634797232425      -0.22275382816629
O         6.30521881049460      -0.37163669697658      -1.14857471840330
O         7.13275869482218       1.30149954643691      -0.16501302518559
C         7.51700523372427      -0.80124814867903       0.83487671739796
F         8.89721690981120      -0.74244684616316       0.79418167182016
F         7.11529876359879      -2.10998041798267       0.63071720154104
F         7.08164412593085      -0.38700944148553       2.07939728444250
