37
C9H13F6N3O4S2 optimized with DFTB in AMS.
N         1.01371004718250      -1.19446703149687       0.47873737689720
N         0.69928677219896      -0.21012231841569      -1.41008669579796
C         1.58259021009181      -2.08340618053897       1.49352548932602
C         1.89800918249741      -1.33977704627139       2.79268654215297
C         1.41136602633184      -1.14849666404476      -0.79048123878862
C         0.02591013259842      -0.26683945198497       0.67287895136437
C        -0.16968467962676       0.35523068539048      -0.51965217718570
C         2.91736346319130      -0.22227797024550       2.59229921545034
C         0.87207232137598       0.19140448527321      -2.79745616543032
H         2.49479763416180      -2.50844900062431       1.06786833503537
H         0.86187589517916      -2.88652263078829       1.67911208493637
H         0.97591654643233      -0.93759760274752       3.22380324050431
H         2.29550025877984      -2.08078402367471       3.49269126977292
H         2.17998500473710      -1.75789804030204      -1.23284033722405
H        -0.45283156295378      -0.12105673136608       1.62462482164872
H        -0.83791497953843       1.15139267961259      -0.79696815512899
H         2.54200881548065       0.52221670556168       1.89116329267629
H         3.85067704123533      -0.62291078733404       2.19900449453479
H         3.11864034218003       0.26521773937913       3.54543019125825
H         1.93913550756076       0.25294860745892      -3.01022229095582
H         0.40353374686064      -0.54461979408772      -3.45170909215378
H         0.40972008028292       1.16579338798580      -2.93881915399490
N         4.70048300894183       0.66377666693693       0.18780482672574
S         4.61762745349845      -0.51939244867578      -0.87487893814365
S         4.82156743393095       2.15745160687825      -0.40744348830100
C         6.33885397615652      -0.87636728486669      -1.54819199305371
C         3.05635866554351       2.63461059343349      -0.85555029510385
O         4.26917711581652      -1.71716186589872      -0.12829801125804
O         3.80455243550257      -0.25845841751566      -2.05710416232001
O         5.56821573395574       2.27567352742858      -1.63034767143853
O         5.12732882991540       3.02391975115648       0.69384391228610
F         6.47792027130390      -2.18779274170054      -1.67060506809364
F         7.25349284406922      -0.42370074406649      -0.71149325451545
F         6.50050138898631      -0.31704574181602      -2.72844298887054
F         2.19413225477241       1.91198544694942      -0.12484144556131
F         2.77633182632514       2.41206138827634      -2.13402775310559
F         2.83927250524174       3.91103831814146      -0.59521559344435
