24
C6H8F2N2O4S2 optimized with DFTB in AMS.
N        -0.93554255501564      -0.69191418381772      -0.01201090689655
C        -0.32318830438775       0.11616698272876       0.86873594239799
C        -0.24694515450849      -1.60705196929231      -0.70697294843104
C        -2.39085052405273      -0.63426959262117      -0.12962046848721
C         1.04112558838163       0.04950360718112       1.04948788552751
C         1.11894964937533      -1.72603051733926      -0.54610105700802
C         1.78071081659258      -0.88672753410905       0.33693517077759
H        -0.95059388171620       0.80252488762591       1.42413830524536
H        -0.80993141312000      -2.25234049342074      -1.36848886835168
H        -2.81590913364643      -1.19051474595777       0.70747264303171
H        -2.71719816606056       0.40365689970389      -0.09395991260916
H        -2.69675276472773      -1.10114587529115      -1.06214054686399
H         1.51251750857336       0.70696659046028       1.76834038772672
H         1.64643854788106      -2.49565229872024      -1.09414693270005
H         2.84994666780357      -0.97229198339660       0.48551251508172
N        -1.50915597061073      -4.47471478189799       2.18406189955591
S        -1.62636559792920      -4.52846579522919       0.60639562513040
S        -1.07040313526804      -3.09490001734867       2.82553093797818
F        -0.08799728547788      -4.32732715381546       0.06230523116022
F        -2.34826150350963      -2.08763210257115       2.54696515354703
O        -1.96880611345741      -5.85066773421056       0.21731269036943
O        -2.31276845171418      -3.42727274985862      -0.02222181789893
O         0.00799825647961      -2.39925488370968       2.17750794233702
O        -1.04335477428455      -3.23502296479262       4.23895965677985
