52
C16H33NO2 optimized with ForceField in AMS.
N        -0.06159359967872       1.47888366706393      -0.00810564380588
C         0.53416298250288       2.41238073142583       0.99785041787692
C        -0.72752427992484       2.36581079120794      -1.01101782650718
C         1.02031496825259       0.68849272108415      -0.68219018857724
C        -1.07702899837653       0.60452829596416       0.66526453989843
C         0.01714836667491       3.81064901055487       0.71742573132663
C        -0.28264067221810       3.79225895857533      -0.75419394763073
C         1.76426394561818      -0.30397676599762       0.24411904938831
C        -1.76981441282262      -0.41949642752578      -0.26645116078945
C         2.98229128996234      -0.90502198765230      -0.46890929097972
C        -2.87667994765839      -1.17005001378813       0.48629569503149
C         3.70562630290808      -1.91821975782700       0.42538009252017
C        -3.59261064584723      -2.17176763056842      -0.42654740702406
C         4.90511893434598      -2.52947658746983      -0.29341673023081
C        -4.66685295481738      -2.94080513189723       0.33816174426094
H         1.64504683288711       2.45851842089054       0.92577427901186
H         0.30376321911527       2.13173137335891       2.05124463895253
H        -1.83726629509621       2.35372333382933      -0.91270912499453
H        -0.50465516306635       2.08510131193028      -2.06584576364004
H         1.76762779174787       1.38708242013568      -1.12681064098992
H         0.60910048405669       0.11684282589031      -1.54307172423926
H        -1.86430734883258       1.24261816245385       1.13088833585296
H        -0.61410422526255       0.04980554822914       1.51095963174643
H         0.76784820145818       4.59071302551648       0.97107818141815
H        -0.91839635489637       3.99045368887715       1.29233104052884
H        -1.07284394644327       4.52847827669810      -1.01893841681581
H         0.64231411045160       4.01047603192495      -1.33269066475848
H         1.08576975445135      -1.13422475129821       0.53149613102568
H         2.10488963055349       0.20318357431813       1.17087060242204
H        -1.03430571979193      -1.16562701333720      -0.63182706787252
H        -2.21474239320611       0.09082884915904      -1.14598009571257
H         3.68654214070003      -0.08970859598623      -0.74128646203934
H         2.64819071367368      -1.41025965460658      -1.40159066673478
H        -3.61829779300976      -0.43965584677779       0.87786115766298
H        -2.42767660849419      -1.71265433033781       1.34707455375679
H         3.00622811510765      -2.73369628037844       0.71148112267304
H         4.05946091707093      -1.41574922668861       1.35184580384923
H        -2.85829277439487      -2.89678113214109      -0.84013802406329
H        -4.07063389045571      -1.63190917303552      -1.27273790031865
H         5.39468800407424      -3.27604299774234       0.36665701578938
H         4.57937204364830      -3.03888003874723      -1.22528423413317
H         5.64532930078974      -1.74198370551034      -0.54597010579529
H        -5.17257588951180      -3.65474276696794      -0.34549222763803
H        -4.21029528065083      -3.51305174630329       1.17379091803350
H        -5.42691540322154      -2.24078228166487       0.74592955927685
C         5.16253153080702       1.31670303668875      -3.43237327210666
C         5.83183253650125       1.43296969610900      -2.10001496647059
O         6.58024073746107       0.55080979978646      -1.71274426347239
O         5.62207412724346       2.40380903439814      -1.39151947852097
H         5.82894183889170       0.79286992575710      -4.14992545132219
H         4.21849946848781       0.74270730988306      -3.32426224313335
H         4.93219859143449       2.32542601703916      -3.83599361598624
