32
C8H18BF4N optimized with ADF in AMS.
N         0.60649225247420      -0.09236552982886       0.21155172312855
C         1.56631409787488      -1.13807885446970      -0.38155492323314
C         1.40088069700429       0.56401364230393       1.34031527245546
C         2.74259649400618      -1.25881432899731       0.59475773824615
C         2.29816523757250      -0.53520476121755       1.87239316669544
C        -0.60410798587619      -0.78187174626996       0.80812714064124
C         0.22715748801875       0.92433882070225      -0.84872454897920
C        -1.55719645849160      -1.39053291741249      -0.20279914769430
C        -0.59950204533572       2.07503340782252      -0.31724125272391
H         1.89742829342057      -0.76008483946935      -1.35583653276209
H         1.00006578593859      -2.06857824422548      -0.50746903835473
H         0.69571099376390       0.98765000847243       2.06664525962738
H         2.00037130396240       1.36336976767755       0.88233815166124
H         3.60279053134010      -0.72282249349990       0.16997371577550
H         3.01756398588264      -2.30766285043827       0.77341772489447
H         1.76587645909970      -1.20285807351504       2.56964603879074
H         3.15468191070895      -0.09193100047376       2.39938891557508
H        -0.20274923191654      -1.54950076585082       1.48525437063023
H        -1.12298996963580      -0.03325415978774       1.42238183381076
H         1.18371540772570       1.29509341840017      -1.24482930013110
H        -0.29314274728977       0.36607608792529      -1.63998552106306
H        -2.30441593512640      -1.98825604422447       0.34025858640374
H        -2.09773777851475      -0.62434213185689      -0.77450361042074
H        -1.05163313065077      -2.06175619098622      -0.91101091887685
H        -0.84876729018480       2.73010966062116      -1.16493915814002
H        -1.54437643806343       1.76168789008812       0.15090698297882
H        -0.01617205914097       2.68209158368392       0.38864634845391
B         3.76946835938182       2.10094823274555      -0.79286380237265
F         3.31259788079940       1.02752551595462      -1.64853666725058
F         4.25624267459928       1.51964516287471       0.41949596532806
F         2.61152516682663       2.89669131476713      -0.46731898088986
F         4.74381719182628       2.86046506168442      -1.42933798230454
