34
C8H18F6NP optimized with ForceField in AMS.
N        -0.37249553665468       0.37738088747502       0.05641319982611
C        -1.42139289872175       0.63273691366982      -0.96823740095474
C        -0.84085729864803      -0.81658880922530       0.81979671740717
C        -2.69132674958617      -0.04980359464019      -0.50591685709298
C        -2.19488281109182      -1.24259564606562       0.26779344315292
C         0.92943129701074       0.11842344689012      -0.63119203735465
C        -0.27344562917983       1.56112922765123       0.95021214260068
C         2.13847906319124      -0.04095913132702       0.31867703759998
C         3.34948916877908      -0.58959094397711      -0.43127381949610
H        -1.15119238293274       0.19311616593103      -1.95749140655096
H        -1.60462027209978       1.71792394423606      -1.14568448013864
H        -0.95368727601212      -0.60304436746829       1.90854840596175
H        -0.14340092284433      -1.68043328602825       0.74390043630566
H        -3.33118051487669      -0.35546519154703      -1.36232391830074
H        -3.26266433745832       0.62723920770177       0.16643583960498
H        -2.90357324511420      -1.52466137362104       1.07621775059854
H        -2.06355316293913      -2.10460422098889      -0.42433405567042
H         1.15793916030656       0.95228524010717      -1.33488462577673
H         0.84262078129943      -0.80456812844003      -1.25101645798076
H         0.13836150081576       2.43905043253626       0.40428561575162
H        -1.27289459206937       1.84189015331686       1.35252100479685
H         0.38092848617567       1.35614856509835       1.82527637378003
H         2.41642639883427       0.94661014713540       0.74453952069191
H         1.90236339581231      -0.72789962452697       1.15769731348762
H         4.21155528345306      -0.66828350710464       0.26258603219727
H         3.12865166075431      -1.60014693839463      -0.83609368057493
H         3.62469820878483       0.08736600200231      -1.26817106842576
P         7.58131125321771      -0.63724896888870      -0.62119846012290
F         6.41790764777723      -1.44351338144188      -1.59586635478761
F         6.83900510678269      -1.19987251542417       0.82291700502878
F         8.55854476759071      -2.05062165792823      -0.59852148458301
F         8.66753310292303       0.26465574969507       0.35850188305612
F         8.47748568919074      -0.13233366959241      -1.99783351287185
F         6.55095078782960       0.73515556688392      -0.71298110086521
