41
C11H21F6N2P optimized with ADF in AMS.
N        -0.62799859896401       1.78257034736850      -0.10194829736035
N        -1.69544715635709       0.63511699876381       1.40207297336175
C         1.70163807577296       1.94474554414534      -0.97953231650580
C         2.15326151006036       0.48788247904288      -0.96106747841629
C         0.21212163254609       2.12595802695515      -1.25973955828712
C         3.64610488499503       0.35451171710203      -0.66580817772266
C         4.11102716748198      -1.09928747903519      -0.63295994343749
C        -1.04590426558587       0.55541185674822       0.23527985428854
C        -1.00157819405548       2.66214568978152       0.89336073978609
C        -1.67407631528708       1.94027375449455       1.83396270304343
C        -2.30664022154535      -0.49963908192664       2.11017202206153
C         5.59395973921505      -1.22979240892937      -0.29480661810293
C        -3.71960335251820      -0.77337411949211       1.62033145220347
H         2.24809084747118       2.49819386875539      -1.76482412370753
H         1.94528977877408       2.41709915782931      -0.01266643430000
H         1.92203647695556       0.01909462202122      -1.93842768904772
H         1.60731729393726      -0.06489190727887      -0.17919202787224
H        -0.03141170160063       3.16884410473942      -1.51085399241176
H        -0.11566619497616       1.49465063051462      -2.10091008885917
H         3.84794774679587       0.81417476607539       0.31749309101965
H         4.22889673898192       0.91804780122368      -1.42017302442155
H         3.90536142991447      -1.57303312787061      -1.61151703595528
H         3.51340725327137      -1.63699980501250       0.12277687438376
H        -0.85036413198616      -0.35354247573096      -0.31685680964391
H        -0.72430281739150       3.70785019040316       0.86445284602929
H        -2.09200495226040       2.23166012103546       2.78857497411278
H        -1.62675947111026      -1.35216549768127       1.97577725679954
H        -2.27114128369598      -0.24757505732653       3.17784083361327
H         5.80117447495402      -0.79434879273852       0.69539353799741
H         6.21941283430104      -0.70514379347763      -1.03576355326096
H         5.90877607777892      -2.28459039979201      -0.27132483814633
H        -4.36983007958822       0.10186414629365       1.76746264159162
H        -4.14362637909820      -1.61635685677337       2.18605304418268
H        -3.72930085700676      -1.03958879433402       0.55262882042484
P         1.50471816525380      -0.15332635207746       3.07079405930030
F         1.56563719237161      -1.50779436580996       3.98999316990107
F         2.94817641331217      -0.51896292873701       2.37091361877502
F         0.71861812471126      -1.03342919853022       1.85786801680761
F         1.37935033254415       1.20276320969621       2.09747360726981
F         0.01390658102552       0.22463148875629       3.72490906177920
F         2.24729245070169       0.73411030350845       4.22740564382646
