42
C10H22F2N2O4S2 optimized with ADF in AMS.
N         1.03969040326413      -0.37058119658448       0.01677673541028
C         0.93352519691779       0.05886400856454      -1.44076295802929
C        -0.10883761055487      -1.30634871401014       0.33215601781329
C         2.35828294776065      -1.11979852634505       0.15673882266555
C        -0.40845585318991       0.67898349253050      -1.78352444595515
C        -1.47353247666152      -0.71303782093756       0.01490846361489
C         0.98805402360776       0.82271905181456       0.95612200140670
C        -1.56013607914636      -0.26810858661242      -1.44481677368869
C         2.66841598893400      -1.67016069156652       1.53754028218654
C         2.17368171481973       1.76186936688040       0.86592965367791
C         4.05359226521615      -2.32278438641122       1.50729042555233
H         1.10177494061269      -0.85582668899141      -2.03077839360554
H         1.77949554234228       0.72533183368136      -1.65044739063232
H        -0.02107189755051      -1.57625577517707       1.39278604107981
H         0.07033254772802      -2.20769432968494      -0.27642277078368
H         3.13854931069479      -0.42280890528143      -0.17106269281785
H         2.32453471528592      -1.92611813388553      -0.59182334503552
H        -0.38560084561945       0.89542897983826      -2.86426562052505
H        -0.54132543872424       1.65195356549310      -1.27967261621685
H        -1.69848318235894       0.12702621928102       0.69329650173309
H        -2.22310749645368      -1.49152339827387       0.23345886248338
H         0.05718185742189       1.35451876177042       0.72764601694807
H         0.89035193126650       0.40232139345267       1.96781390401313
H        -2.53169722907920       0.21074997284352      -1.64263525706962
H        -1.49900511718798      -1.15733007427969      -2.09769962971084
H         2.66159156963139      -0.86664187326779       2.29430573758417
H         1.91627619908508      -2.41795302109759       1.84196323213932
H         1.96998085372388       2.61945519714491       1.52491060461204
H         3.11141192563240       1.29816541994021       1.19644329712766
H         2.32985921669194       2.15325071085148      -0.14812593669899
H         4.29033672201584      -2.76563411792196       2.48557189618762
H         4.09700766282930      -3.11540722358512       0.74525689201343
H         4.83500435999719      -1.59244044702843       1.25292132845121
N         4.75724358219422      -1.27784642803080      -1.93327912291558
S         5.84296928830908      -0.18497755691539      -1.47548117622122
S         3.86005764090009      -1.02083256602175      -3.23898220321961
F         4.84175603323868       1.01257981247015      -0.80433877294656
F         4.84976887055166      -1.41819058692112      -4.48219108413451
O         6.52393531801125      -0.70856879279832      -0.30723124520910
O         6.55539379163280       0.51573077409990      -2.52137751966834
O         3.48062143900010       0.36047609589640      -3.49588596158337
O         2.82599087520941      -2.04846442532379      -3.24570642413275
