35
C11H18BF4N optimized with ADF in AMS.
N         2.28169936497383       0.19243692029218      -0.24020472503228
C        -1.52320348421896      -0.00104055672636      -0.63491942450905
C        -0.16144677960308      -0.06860616942112       0.04896348964157
C        -2.64988596927204      -0.32744680040144       0.34409923171620
C         0.96123755050614       0.32138035445937      -0.90296015358474
C        -4.04122641465832      -0.21343539669029      -0.27300899182872
C        -5.14811616873846      -0.44192268940281       0.75356011757629
C         2.82937073267193      -1.03898862451532      -0.11686040497618
C         2.83601438310155       1.26171646091015       0.36319182131256
C         3.99597634757698      -1.22101007634165       0.58914126511248
C         4.00898655950172       1.12663576345470       1.08731703323091
C         4.59500523479521      -0.12272048541770       1.20713559291263
H        -1.55897834246422      -0.69753928678470      -1.49500919717255
H        -1.68413384271801       1.01419241628281      -1.04473412111652
H        -0.13398090158909       0.60045149385317       0.92245812228601
H         0.02562668706234      -1.08205611958780       0.44330659070493
H        -2.50372464140937      -1.34854090775658       0.74193597360226
H        -2.57132274298490       0.34890575491699       1.21447010858887
H         0.86569525442102       1.36789034618750      -1.22808885868473
H         0.98750864059226      -0.31396564331481      -1.80277813316758
H        -4.15776015640056       0.78920734013551      -0.72469776638919
H        -4.13987171764232      -0.94058428389634      -1.10049304802829
H        -5.08624562816985       0.30381681551140       1.56232297793485
H        -6.14722755268872      -0.36800770120720       0.29775994873408
H        -5.05664435364536      -1.43843542145889       1.21505215274175
H         2.28455987020594      -1.85180503972007      -0.59260573396807
H         2.31442538720832       2.20678068072333       0.25115876244907
H         4.41184931994964      -2.22352679860194       0.68023115087052
H         4.41493240701512       2.00202102519319       1.59180468981846
H         5.50068453701973      -0.25207890556508       1.80078154861962
B         1.27077231913198       0.61463571588629       3.21853653648256
F         1.81815743773800      -0.50979847988331       2.51295432264580
F        -0.07817630668387       0.36218208380661       3.52719732248498
F         1.31828891677634       1.76465726746984       2.31480409423883
F         2.05187452753907       0.89682731321035       4.34765952355268
