44
C12H26BF4N optimized with ADF in AMS.
N        -1.88666125009901       0.25257314992115      -0.02438751077522
C        -2.29647586992903      -0.82210761898541      -1.00406353199189
C        -2.97077997959858       0.15254807168669       1.04232726090524
C        -0.54176156532832      -0.05585322590821       0.61736048924976
C        -2.75276531116755      -1.99307537918691      -0.13790271210361
C        -3.24106643116046      -1.34594653840037       1.18571462124769
C        -1.88844727623278       1.60533909262123      -0.69568946432374
C         0.64960850141322      -0.04828603180216      -0.32096153687739
C        -1.46791701599639       2.74208493980637       0.21312591461637
C         1.91221180775099      -0.38208698739070       0.48281401281831
C         3.18966176718697      -0.26858286798208      -0.34364388396017
C         4.44129010371929      -0.59364454166296       0.47066047115420
C         5.72742768525739      -0.47324055155387      -0.34280048079099
H        -1.46296270502528      -1.03614549407814      -1.68346557286053
H        -3.13288526549343      -0.40198441048814      -1.58390512339278
H        -3.83929053857119       0.69377907831894       0.63641324301110
H        -2.60941703918721       0.62900686581956       1.96548411011251
H        -0.65367186820097      -1.02279616001771       1.12445571509922
H        -0.41344017571572       0.68140989607671       1.41721942749271
H        -1.92350168679402      -2.69074406305542       0.04763753214270
H        -3.54327649395846      -2.55699712999763      -0.65380568295782
H        -4.31243319290807      -1.51877734755163       1.35958298150598
H        -2.69277275034235      -1.73408533414124       2.05487303320940
H        -1.23147367872771       1.52048446253424      -1.57389120024613
H        -2.91840827257476       1.74766587263494      -1.05774254009133
H         0.53888068769907      -0.77802412731112      -1.14244583968480
H         0.77718462245891       0.94573149068131      -0.78304463510119
H        -1.65412146405277       3.69128226270338      -0.31185066164933
H        -2.02813783935414       2.74811685526698       1.15742313129880
H        -0.40045479219573       2.69778504683270       0.46671370514917
H         1.82117524307548      -1.40483129450277       0.89004411209757
H         1.96530627996519       0.28234662832559       1.36123417135764
H         3.27716108790317       0.75780412695451      -0.74803551074495
H         3.13498006693447      -0.94449266286825      -1.21863117401491
H         4.48433368139004       0.08108843664142       1.34395563386341
H         4.34982003228611      -1.61646569447801       0.87813407566848
H         5.85506424247087       0.55048962711105      -0.72982128850470
H         6.61299934378433      -0.71459695283863       0.26534642116179
H         5.71481645115901      -1.15811170814106      -1.20618058146999
B        -0.62918426886817       0.58039685657235       3.93662410968335
F        -0.66377037131616       0.76868451973434       5.31528869209907
F         0.69884207205736       0.63233575949225       3.42243349155826
F        -1.39619320988931       1.61802310301576       3.26545508910354
F        -1.21590650382433      -0.68060292680905       3.57209767603520
