25
C5H9F2N3O4S2 optimized with ForceField in AMS.
N         1.11498599190385      -0.01806312654062       0.00482228421486
N        -1.10721536022934      -0.00977548734256      -0.00591085152248
C         0.00119436692782      -0.77636499657487       0.00376980807494
C         0.69904609619839       1.26187888863096      -0.00601565728728
C        -0.68144273074215       1.26792300920098      -0.01196795657172
C         2.49862537815076      -0.47355354392875       0.01557149183451
C        -2.49330385264090      -0.45871851212033      -0.01219440104383
H        -0.00259739677571      -1.85918553053628       0.00888386944543
H         1.35341707881728       2.12270047587543      -0.01176393196979
H        -1.32631160178159       2.13702304682617      -0.02137450495940
H         2.54475701097820      -1.58305804205167       0.01637128737197
H         3.02304609805049      -0.09039463341723      -0.88516170699312
H         3.00904191157818      -0.08979082634046       0.92411538314933
H        -3.01456188030117      -0.07073824192741       0.88823972511196
H        -3.00383151745538      -0.07749732156886      -0.92161093226104
H        -2.54432079608164      -1.56826748778340      -0.00843727069158
N         0.57771842454126       6.91470154483076       0.41672819649533
S        -0.39443398883169       5.68977303303263      -0.06159307763805
S         1.23673987018722       6.93074416179629       1.91422177131170
F        -1.91049270505049       5.88814805421971       0.61910557817261
F         2.45599419336489       5.78593638996986       1.99529100282956
O        -0.51508558387528       5.69319297523165      -1.55877157989918
O         0.17625856874566       4.38081713373715       0.40011412522194
O         0.18832799030067       6.59756025043961       2.93858497236512
O         1.80927399272067       8.28994665344124       2.19707912283820
