46
C14H26F3NO2 optimized with ADF in AMS.
N         1.41616786953060       0.06653738076859       0.24923747427043
C         2.66888113573894       0.52042240176385      -0.52715689390617
C         1.93583289243112      -0.98643280463662       1.20918091422580
C         0.79591519083233       1.20372730089293       1.01609551588393
C         0.43609745650663      -0.54374617380086      -0.74212779127777
C         3.73868359247904      -0.55800064398563      -0.30023643117451
C         3.01832462282965      -1.70336602848411       0.42661415840450
C         0.22683491690453       2.30965847932177       0.14544333527959
C        -0.88149506035513      -1.01134324641490      -0.15392908636319
C        -0.22999940919173       3.48896251629088       1.00572166071513
C        -1.69269637120402      -1.71902918173915      -1.24510974387080
C        -0.79910153997478       4.62551486044395       0.16196822502006
C        -3.06467792476590      -2.16518143763106      -0.75134298751276
H         2.96053117336365       1.49818352994924      -0.12062484848211
H         2.38514974631973       0.59570948688337      -1.59662034528394
H         1.10159185284688      -1.61035560663528       1.55224428352611
H         2.35827684284789      -0.44003275391869       2.06816885954066
H         0.01713431217827       0.77031990407510       1.66294519963898
H         1.59359087241918       1.59899353724968       1.66598131768297
H         0.28507434637993       0.21691962550752      -1.52048650739875
H         0.99224084788904      -1.34762130394130      -1.25960749744812
H         4.14094717505162      -0.90071263037151      -1.26352093484387
H         4.56056874545015      -0.16039061311262       0.31683232876308
H         3.67931738625591      -2.27495436122799       1.09386143408294
H         2.58354885069125      -2.39011189677342      -0.31517989458690
H         0.98461636239861       2.65103914015687      -0.58012118451512
H        -0.62797061578845       1.93682715725165      -0.44178023869794
H        -0.73320459196088      -1.71608784391828       0.68355198834729
H        -1.47510947802885      -0.16562754092077       0.23897377497128
H         0.62279728424984       3.86012479681320       1.60274981991851
H        -0.99164207384370       3.14264613320941       1.72844821958075
H        -1.80543297266420      -1.04096609204777      -2.10917912797072
H        -1.11668025667701      -2.58565859862915      -1.61168172522549
H        -1.66596353982287       4.28534047676478      -0.42577100343085
H        -0.04419550998791       5.00546792152723      -0.54438811815027
H        -1.12545756361285       5.46405876110024       0.79434217597201
H        -3.66731700566457      -1.30433483793684      -0.41938767229786
H        -2.97387353762995      -2.86074121349316       0.09881104236996
H        -3.62163924497169      -2.67883347119815      -1.54920172950673
C         2.16010840587288      -1.09473717056327      -3.57136560437091
O         2.22877552300042      -2.01999362160127      -2.72305807297227
O         1.94926980417567       0.13722272459379      -3.42580308341220
C         2.35551897608402      -1.52092592756265      -5.06770088315816
F         1.20132577822780      -1.32197148771910      -5.78636689132586
F         2.69417725645200      -2.83220994234358      -5.22335302550544
F         3.33641846973687      -0.78388637095692      -5.67840524930527
