57
C15H32F2N2O4S2 optimized with DFTB in AMS.
N         0.24543441834399       1.18886272697060      -0.54041590107823
C         0.01135559179806       2.47126201928390       0.21474755672394
C        -0.43912811125626       1.29135967186216      -1.87541496525016
C         1.71852099439919       1.04543667756557      -0.83136392823100
C        -0.25585268013234       0.03552299751389       0.27664689634058
C        -1.46465491526853       2.82092275098076       0.36335993265077
C        -1.92870649241769       1.58376356172079      -1.76041296980290
C        -2.16441467276704       2.88257848929211      -0.99256246191156
C         2.61695201961556       0.88618818348777       0.39274865970950
C        -0.04114180063719      -1.34348831924515      -0.34407488798932
C         4.06696406831904       1.16228504228603      -0.02772264823195
C        -0.63811180296896      -2.41147234761217       0.58088252346051
C         5.02464980333233       1.01087269428087       1.15680966399090
C        -0.44362708331427      -3.81432133635415      -0.00331279899835
C         6.46333517521814       1.31871073491103       0.74396812931960
C        -1.03903420179426      -4.88233400757664       0.91175684249283
H         0.52590069112996       3.26222108806304      -0.33302577274180
H         0.46824941616575       2.36590640026843       1.19988031222915
H        -0.26537073046485       0.35791596127577      -2.41336698665528
H         0.05562512870932       2.10060050833491      -2.41711230090711
H         2.01053814641787       1.94294478157242      -1.37450028653300
H         1.83491581222217       0.19004621830345      -1.50003929472719
H        -1.32244547367353       0.19066114729065       0.44783485910131
H         0.25204419339523       0.08894559293480       1.24294938911308
H        -1.51056523761795       3.80193823286996       0.84361596387113
H        -1.97075970478034       2.10716922603120       1.02092101256599
H        -2.45506606922947       0.75216536301428      -1.28169747316678
H        -2.31791232240302       1.68097804229660      -2.77736151832765
H        -1.76875219980974       3.72271873211018      -1.56868556982932
H        -3.23599330904581       3.03823922320956      -0.84753930543805
H         2.33962670534415       1.59535488810418       1.17608631557806
H         2.53640167071153      -0.12440086191392       0.80521421158499
H        -0.52582064606202      -1.40565285385796      -1.32164729792251
H         1.02446020496219      -1.54420722907764      -0.47897983969327
H         4.13310377764394       2.18007798879487      -0.42574958813152
H         4.35281767141184       0.46844452243012      -0.82522081829161
H        -0.15600122537169      -2.35251086528333       1.56257681534802
H        -1.70688312147359      -2.21643245174716       0.72028569153548
H         4.96546128258067      -0.01115001642489       1.54771248749312
H         4.72241211133695       1.69405518481578       1.95762055229542
H         0.62602012456813      -4.00494539979943      -0.14020659649180
H        -0.92211925424028      -3.86722062294535      -0.98694808468059
H         7.12867998614637       1.20503176732001       1.59998843708588
H         6.78908119737830       0.63826966591911      -0.04386621944788
H         6.54148592675814       2.34226926674644       0.37627762355519
H        -0.88862718363344      -5.87009845822451       0.47635283999474
H        -0.55985903363391      -4.85709457997672       1.89133343543788
H        -2.10949190529136      -4.71946070274229       1.04380742178848
N         2.21114200418566       5.53924968525186      -3.35544885322378
S         2.26086318105927       6.90132141252952      -2.48474314788796
S         1.86096185389628       4.25472538997508      -2.55055402363031
F         3.62511099131772       6.72161488528591      -1.64389277670811
F         0.22586453545221       4.36886577740963      -2.22059867146297
O         2.51984300967143       7.97131141514672      -3.38318040110296
O         1.23950621916219       7.03391825990011      -1.49940329409643
O         2.41000805890154       4.08312976613097      -1.22782537618765
O         1.89825340233257       3.10874398029028      -3.41602998968758
