36
C10H16F2N2O4S2 optimized with DFTB in AMS.
N         0.60437072485186       0.02211598330056      -1.10113591244147
C        -1.69519730391724      -0.34276879124015      -0.23184621530684
C        -2.95655495922643      -1.18471158275417      -0.44210943164244
C        -0.56048893575073      -0.87897632973839      -1.11024479535644
C        -4.08470808120331      -0.70980492658949       0.47933600437416
C        -5.35855421641205      -1.52148525842467       0.25613734944104
C         1.14772365729640       0.39116518289066       0.07061211991445
C         1.05438106741972       0.53045035535944      -2.25712677147528
C         2.17892822478042       1.30406853053567       0.11075555730014
C         2.07833297822502       1.45671769794428      -2.26933084158459
C         2.64888958420411       1.86052549675723      -1.07222183238148
H        -1.40029407697585      -0.37440239508988       0.82087614951965
H        -1.89722301612116       0.69540974742969      -0.50139760259016
H        -2.73375439365268      -2.24010455333521      -0.24499559679218
H        -3.27624326233996      -1.09616271246368      -1.48536413819308
H        -0.22586341668828      -1.86153976180530      -0.76270081525132
H        -0.90094220140321      -0.96149177126593      -2.14470776075940
H        -4.28649489898746       0.34655409533912       0.28292493350158
H        -3.76717438873199      -0.80518167061795       1.52340837871299
H        -5.70483024872635      -1.41333782549208      -0.77236969373125
H        -6.14351430037557      -1.16911920796631       0.92528419380163
H        -5.18226363841871      -2.58045880344995       0.45388326491298
H         0.73358472537059      -0.05002425235195       0.96792990076436
H         0.56402133410860       0.20398608188083      -3.16497087524588
H         2.58908389005879       1.59569501377434       1.06895287293884
H         2.39193269749934       1.88291338793496      -3.21306266020839
H         3.43476793095246       2.60539857378623      -1.05788234990414
N        -2.10760792209037       3.95718274345076      -2.10928731306088
S        -0.82703723186401       3.07368150908054      -1.95570654250808
S        -3.35002311042592       3.53370449950666      -1.18241948620391
F        -1.22241025912987       1.62471981316280      -2.69234490105195
F        -2.86466515856431       3.96283281886517       0.29766671797824
O         0.21006466455081       3.57332436871153      -2.80571918266419
O        -0.44920970779485       2.63549368337417      -0.63674793878827
O        -3.58891225478021       2.12613365007232      -1.07540815089582
O        -4.43410026783759       4.40162880372818      -1.48108748622265
