47
C13H26F3NO3S optimized with ForceField in AMS.
N         0.97763140387204      -0.31199141662150      -0.00047367076253
C         2.04776432948913       0.06870263605906      -0.97438753290307
C         1.65012175388479      -1.22999565367887       0.96939374465360
C         0.48417758617941       0.90074022133368       0.73035292074678
C        -0.11762377199699      -1.03351791430979      -0.72656211468564
C         3.25538918126252      -0.81335910526285      -0.71840720492230
C         3.14626813518000      -1.13835751393962       0.74366539565721
C        -0.27532416661579       1.92125213999913      -0.14969021479963
C        -1.30083154673881      -1.47744614332224       0.16564251070412
C        -0.56772912954919       3.20367833205192       0.64071403891692
C        -2.30325958395899      -2.31096202488724      -0.64254827216185
C        -1.31761931811993       4.22666596673706      -0.20764816640683
C        -3.48748718718135      -2.74233529143400       0.21735121798291
H         2.38302189497898       1.12327350844200      -0.84233972142165
H         1.73158407873001      -0.02886365051952      -2.03818569420787
H         1.36469631329758      -2.29485472631114       0.80688199399101
H         1.41434681621145      -0.99871709241585       2.03329762296519
H        -0.18233223818176       0.60590884880331       1.57076786754069
H         1.34764380381649       1.42004323541071       1.20813437898408
H        -0.51842099918971      -0.40243339524562      -1.55050660152529
H         0.30252108856534      -1.93794722319907      -1.22557167847786
H         3.17536604671135      -1.74754760991009      -1.31841565482085
H         4.21051275180279      -0.29571747238737      -0.95447545076246
H         3.57000995485924      -0.30554815377563       1.34838119874711
H         3.66614284742029      -2.08856046123110       0.99450191632526
H         0.31786555506125       2.17362068845000      -1.05122314733916
H        -1.24232139888807       1.49117308422391      -0.48399360431297
H        -0.93727341632601      -2.08228989360056       1.02280436073302
H        -1.83274656344714      -0.58955721047784       0.56552375505450
H         0.38517390246463       3.65895463384171       0.98881382460883
H        -1.18585511515827       2.95749434349540       1.53173711534770
H        -2.68285254050549      -1.71208384078893      -1.49926004696589
H        -1.80203436334179      -3.21913267796330      -1.04297227862622
H        -2.27687715187044       3.80053876385883      -0.57070548985192
H        -0.70049748614728       4.53588958652703      -1.07703413393058
H        -1.53815395002669       5.12535379409412       0.40627784597985
H        -4.02038707829182      -1.85235711648231       0.61490040276876
H        -3.14010713520637      -3.37215747398183       1.06382122149468
H        -4.19658326343304      -3.33444116107106      -0.39876480538266
S         3.09337876809874       4.84938513188661      -2.31642062265353
O         3.54993466050660       4.24331118823765      -3.65170083660127
O         4.11068046643919       4.28936097659149      -1.31117689664832
O         1.81865055129402       4.05814689621962      -1.99673978709212
C         2.89925139538315       6.65477355703809      -2.30746083099839
F         1.93694530870077       7.02123430271768      -3.22841345414368
F         4.10066016580722       7.25076155163394      -2.63822599879016
F         2.51110415675796       7.07253683266438      -1.04918269290752
