31
C9H19NO2 optimized with ForceField in AMS.
N         0.83223089525219       0.00811303136175      -0.02937648844331
C         0.05882387523835       1.23248958665788      -0.38993390354252
C         0.08441102893357      -1.22701431568366      -0.40690487782549
C        -1.37293313608709       1.23880212627028       0.17465977997463
C        -1.34718962938147      -1.27074285869058       0.15673582428373
C        -2.12639675662347      -0.02087465349318      -0.24543411910150
C         1.17407216802041       0.00137259405354       1.41683222268404
C         2.10758107893181       0.02670732255828      -0.78803701950194
H        -0.02073050930722       1.32467125642605      -1.49817433895328
H         0.58410837170238       2.14730580990366      -0.03241296737899
H         0.62844837271822      -2.13546470424026      -0.06133617120848
H         0.00711623679238      -1.30581353554973      -1.51631875154577
H        -1.91227898951371       2.12875211379227      -0.21571126314844
H        -1.36063908108861       1.32522746852741       1.28124888514000
H        -1.33364832062173      -1.37304262799607       1.26194743367987
H        -1.86806441294927      -2.16582075112510      -0.24672140727059
H        -3.12650036414416      -0.03453958525910       0.23877387441709
H        -2.27810480761809      -0.01454559812495      -1.34752958046025
H         0.27544825856919      -0.01567865132577       2.06404948389627
H         1.78445965196324      -0.89192900261327       1.67737005972651
H         1.76098310165238       0.90612210458628       1.69229319530723
H         1.92648398407308       0.03268267408717      -1.88662195563168
H         2.70804664447446       0.93166672517988      -0.54201496277095
H         2.72667337129543      -0.86908962640347      -0.55496354078236
C         2.87982686680412      -2.46453864624620       4.77024255203061
C         3.26115921256911      -1.28600416726356       5.60904656617021
O         3.92025534761246      -0.38068144434489       5.12370868367198
O         2.91655318886772      -1.22484381814270       6.77827275069159
H         2.27209096062257      -2.12553758122197       3.90544941013773
H         3.79615070098909      -2.96910824466887       4.39788319643902
H         2.28496706765267      -3.19206189871112       5.36320224821505
