41
C13H21F3N2O2 optimized with ForceField in AMS.
N        -1.11118054645258      -1.69517243739638       0.27816740845196
N         1.11150190983952      -1.66005003886309       0.33309181062057
C        -2.50409359369261      -1.44327191208340       0.64258264925625
C         2.47577525230373      -1.36870122333663       0.77094103421193
C        -3.04640017047765      -0.20495039794912      -0.08304735259967
C         3.08246478038246      -0.21384406112725      -0.03748708870175
C        -0.02167653751772      -1.41987284281670       1.02093139101875
C        -0.65276055004326      -2.13405160730021      -0.91101318638700
C         0.72625744299813      -2.11459513406515      -0.87662190470323
C        -2.30496748575262       1.07159080014640       0.33949242425297
C         2.26635229133755       1.07862718367513       0.10972791868824
C        -2.89703378951146       2.30540246238607      -0.33186230808078
C         2.92343232079626       2.23601018054798      -0.63373704934367
H        -3.11901507698028      -2.32829795634765       0.37228447865823
H        -2.59122548198782      -1.29737365183860       1.74179269341721
H         2.48144135127494      -1.10367921119501       1.85133875710838
H         3.10283669935144      -2.27679116380787       0.64373293693133
H        -4.12608355923742      -0.10003668856999       0.16084779568060
H        -2.95665174992770      -0.34878218929092      -1.18209006373018
H         3.14141074463663      -0.50257993990135      -1.10963414290887
H         4.11865579861370      -0.03859718473628       0.32572645609170
H        -0.05347337173770      -0.99588674865389       2.01688741789126
H        -1.27415788065146      -2.41495328061913      -1.75050885674977
H         1.39564357166768      -2.37450351209347      -1.68595901909765
H        -2.37076453334682       1.19706641038361       1.44199476378866
H        -1.23335822913822       0.99859684561105       0.05754057107797
H         1.24605862847774       0.93077581290245      -0.30383198000672
H         2.17516369720638       1.34667804616746       1.18459443446125
H        -3.96060664408595       2.43015148148515      -0.03793141440543
H        -2.82697803007876       2.21495981182464      -1.43672820779040
H        -2.33191373935228       3.20614559523023      -0.01184802688450
H         3.01427393543395       1.99836152117359      -1.71503311754955
H         3.93147643596941       2.43955585615413      -0.21468134336886
H         2.30036764000865       3.14826306892757      -0.52131735808480
C         1.55228019944685      -2.42601327867253      -5.18778669895795
O         1.93307687247990      -1.27805780297167      -5.02195029949411
O         2.32027855353496      -3.25470900992720      -5.64913585281965
C         0.15109946743384      -2.82377963952249      -4.82876309431395
F        -0.49481829681730      -3.30721735106045      -5.95132448146066
F        -0.55301793305496      -1.73842152726887      -4.33745709391473
F         0.18533240715084      -3.81329293070015      -3.86424334135336
