49
C13H28F6NP optimized with DFTB in AMS.
N        -0.17939160699719       0.26486030349223       0.49982397470394
C        -0.62243589317312       1.67710448643071       0.22917942747219
C        -1.05262913883225      -0.67143839533710      -0.28056593564647
C         1.23486431363235       0.15590319110754      -0.01573340232591
C        -0.24743364178185      -0.07851340711673       1.96186426816488
C        -2.09134731611751       1.91095036541296       0.54319146797832
C        -2.54192099612114      -0.48329718777340      -0.00709564237299
C        -2.97268286528322       0.95991490914399      -0.26372230159861
C         1.92187409345809      -1.18663175288899       0.20201646815344
C         0.62290739675084       0.78281454571972       2.86449410242333
C         3.29499337926108      -1.13637866372535      -0.48351410927869
C         4.10456148135286      -2.40149784329718      -0.18624274061442
C         5.44204929359967      -2.42546230642013      -0.93598705018778
C         6.41193510910314      -1.34428740463500      -0.45994196988320
H        -0.43120700126924       1.86426260244756      -0.82962287838385
H         0.01503371269061       2.34180296025218       0.81020730475213
H        -0.75310854518817      -1.69226073896362      -0.03542663567321
H        -0.84475092833044      -0.48638144489337      -1.33795579570914
H         1.80535985888007       0.94153704001130       0.47488147223175
H         1.19316872957148       0.38842877446379      -1.08184950732857
H        -1.29021893441771       0.01241314795685       2.27076485276525
H         0.04067016231192      -1.12867553090518       2.05091420732770
H        -2.31939292130821       2.94562751797616       0.27533249846875
H        -2.28769149243512       1.79480668363997       1.61260997924402
H        -2.78407225027282      -0.77253409193116       1.01920724039505
H        -3.08223204188742      -1.15855146777356      -0.67613040267883
H        -4.02026784526644       1.08685105091429       0.01894385853487
H        -2.87650875671709       1.18654150649067      -1.33029289118236
H         2.06331025427818      -1.37883052383130       1.26932655685913
H         1.33534320288809      -2.00980113436325      -0.21770764479054
H         1.67289089712172       0.74762757507632       2.58368408054350
H         0.30184086663994       1.82179492171710       2.85765319217864
H         0.52334466607997       0.39662064469671       3.87897776298439
H         3.83595822649485      -0.25387105128405      -0.13209825496572
H         3.15301481132093      -1.03433310869133      -1.56435472418345
H         3.52044206826712      -3.28017763091263      -0.48323206344591
H         4.28663908820122      -2.47277699292336       0.89186239029710
H         5.90059158047165      -3.40839887351664      -0.78392922196218
H         5.25878003014948      -2.30645112100046      -2.00925337809951
H         6.54544718505204      -1.39924310117042       0.62153831078625
H         7.38188749366762      -1.48547262191241      -0.93698524957873
H         6.04607006746743      -0.34961356716846      -0.71408447049816
P         2.84035013983323       3.47369369317880       0.09244894926920
F         3.64019913804206       2.01298701572992       0.07516855301161
F         3.69437604360023       3.98228641325581      -1.19228545918448
F         1.69027636875742       2.79479859166230      -0.93641408548829
F         1.96441967332377       4.85052774801137       0.13028566835171
F         1.92546934609196       2.88571084239911       1.39353054645189
F         3.92733650213788       4.07440770654765       1.13884738451196
