35
C9H20BF4N optimized with ForceField in AMS.
N        -0.40493365958502       0.16685934554207      -0.07000036510813
C        -0.96847245886694      -0.88994305954838      -0.96650640441208
C        -1.46571941462528       0.41112047147526       0.95578525058044
C        -2.43260848900501      -1.07918735226893      -0.61717515746196
C        -2.50806986139017      -0.68286510486796       0.83009842267156
C         0.83522423573122      -0.33510016914666       0.60738247638561
C        -0.15634017685696       1.41383576315413      -0.86422906893357
C         2.02351474022427      -0.60376084099402      -0.34660262818375
C         0.43775669035424       2.58081578048149      -0.05402314001070
C         3.16821148883080      -1.29550222871280       0.38876114496218
H        -0.47278229031225      -1.87728916549865      -0.82096931519886
H        -0.86690125826154      -0.65002748514169      -2.04963248553518
H        -1.99471096613601       1.37841283907134       0.79407813266007
H        -1.07379064867647       0.44270294037118       1.99808390207701
H        -2.76438053761810      -2.12944365753080      -0.77096586924205
H        -3.05893834637025      -0.39345095687429      -1.23007937141275
H        -3.52396166021755      -0.32179563342217       1.10299227549510
H        -2.22964552854185      -1.54592380872734       1.47479910442883
H         0.60212180939613      -1.27719843603477       1.15706706777012
H         1.17322967856937       0.38315524097160       1.38703799581790
H         0.52169042453237       1.20910701705939      -1.72162158861644
H        -1.10862282247337       1.76780500861866      -1.32265489907065
H         1.71360706052952      -1.24492040427804      -1.19641577503201
H         2.41338732017089       0.35009773949332      -0.75888017657516
H        -0.16926367920398       2.80731434460591       0.84594883264840
H         1.48132996130438       2.36690200111490       0.25369145303795
H         0.45897903566917       3.48988290988584      -0.69127983467335
H         3.53958083344031      -0.65101217886921       1.21416699437277
H         2.83019458752721      -2.26805027419825       0.80623173617699
H         4.00382517789515      -1.48559602377582      -0.31737464775995
B         1.41350709664275      -4.41441253417144      -3.66245380852043
F         1.92436306332502      -3.88981211683402      -4.87947041318844
F         2.09743733296482      -5.61698865395028      -3.34121621985847
F         0.02636327200497      -4.68242729175625      -3.80745575130410
F         1.60608506572817      -3.46884312194333      -2.62143935528688
