35
C9H17F6N2P optimized with DFTB in AMS.
N        -0.35432701465492      -0.36103213522589       0.75142254453001
N        -2.42862614434567      -0.13941491454275       0.21905407742508
C         0.90512224862048      -0.19056233448086       1.47570171837542
C         2.01744194911907       0.32788808983339       0.56300506848789
C         1.68180621322571       1.69050352080169      -0.05107550345885
C        -1.51286669321186       0.16828467303997       1.13166302158973
C        -0.53179363087041      -1.01795700665183      -0.43807797046420
C        -1.83985969450110      -0.87291905315368      -0.77635431304349
C        -3.79921242207667       0.36739954497942       0.21364981812574
C         2.83897117834638       2.21151139066625      -0.89897899444124
C        -3.94489181298938       1.46689505695405      -0.83264779451547
H         0.71165929603866       0.52060387763884       2.28278644266501
H         1.18353323455976      -1.15841010760779       1.90527855440842
H         2.21833179306867      -0.40346876489498      -0.22679449468025
H         2.92026261005191       0.41033989213539       1.17608755314649
H         0.78669656256721       1.59829280630240      -0.67228778633661
H         1.46192928879198       2.40467478312093       0.74652777300815
H        -1.68055637480225       0.74850705070845       2.02175322851655
H         0.26948770942003      -1.52981071517599      -0.94086768295907
H        -4.47204881202731      -0.46998833294051       0.00611706901551
H        -4.00279561455635       0.76285834471021       1.21116017141102
H        -2.39037902195145      -1.23142333391784      -1.62837690650157
H         3.05857060491474       1.52383630466161      -1.71772195434022
H         3.73816013082344       2.32857705583518      -0.29239708794677
H         2.57584729109593       3.18137084925129      -1.32001942485599
H        -3.23141078496804       2.26415870406826      -0.63466218145655
H        -4.95438522545661       1.87142658224260      -0.78005251852537
H        -3.77026012650432       1.07162085439539      -1.83287054748165
P        -1.40950251316455       3.53055331439463       1.59425045780898
F        -2.36193001723029       4.51186265023374       0.70844680057507
F        -2.74619218174300       2.58908196893998       1.98175908626572
F        -1.19057603847461       2.54655185926102       0.24418829439187
F        -0.45993344752714       2.44522881704068       2.45958828749685
F        -0.07160249735960       4.36792191255966       1.18784303349684
F        -1.63283326882844       4.41578180811709       2.93409370406697
