40
C10H22F6NP optimized with ADF in AMS.
N        -0.68932945367760      -0.20680734522650       0.27765964061118
C        -1.66564302419897      -0.02875564012763      -0.87631197139006
C        -1.40847167617082      -0.91170805258990       1.42443741209624
C         0.42409343722315      -1.10762400295291      -0.24610639038417
C        -2.95391543141624       0.67087245662405      -0.48062007465346
C        -2.70888077428795      -0.23855541564240       1.83161596941362
C        -0.14643791932136       1.11621934211094       0.77217496115840
C        -3.65289850664958      -0.09536796895808       0.64123606048626
C         1.52328855180260      -1.45053133223379       0.74145271976171
C         0.68889807756907       1.89120851042363      -0.22743672127018
C         2.47195060416602      -2.46280055786106       0.09298266867913
H        -1.88462627770040      -1.05219772741678      -1.21582976879582
H        -1.12273151692254       0.50028145411316      -1.67233716680762
H        -0.69733386208586      -0.95649209196276       2.25996582079971
H        -1.60583175239708      -1.93372277068372       1.07898825917288
H         0.83110249110342      -0.59966113868047      -1.13425299926858
H        -0.08303628853101      -2.02702207130175      -0.57073070141806
H        -3.58555159999866       0.70739872226687      -1.38455116601176
H        -2.77097304217830       1.71964357105917      -0.18614035503492
H        -2.52970605790199       0.74136329450833       2.30869482965098
H        -3.15707750969363      -0.88866997803023       2.60160380472457
H        -1.01204770012998       1.70848487846166       1.09293934316612
H         0.44255956363378       0.87847055027605       1.66995033022632
H        -4.58187059042876       0.41415628465009       0.94066036457774
H        -3.92340894574877      -1.10314635030123       0.27963776755621
H         2.08556477614150      -0.55332911583649       1.05307743356186
H         1.08893892847795      -1.91657506511855       1.63922755233419
H         0.98839785502196       2.83965703097140       0.24362252651255
H         1.60792654870061       1.35907447038794      -0.50731952846701
H         0.13054341943515       2.14420738445211      -1.13926585786343
H         3.28187908177215      -2.72861139862357       0.78779287945194
H         1.92370850438013      -3.38129772445008      -0.16375417842812
H         2.92939606337517      -2.05727143380278      -0.82317554632435
P        -1.80849703948199      -4.57532134957099      -0.00191152688032
F        -1.69670012301198      -5.88269597792938       0.96804458806433
F        -2.80063095150471      -3.80668841254494       1.09921548163101
F        -0.48906471260203      -3.87922664344922       0.77929188452274
F        -1.90294222655941      -3.17814633196479      -0.96884180384004
F        -0.78458351805308      -5.23116430440557      -1.10392111965652
F        -3.11225785374994      -5.18081330863982      -0.77722794616527
