33
C9H17BF4N2 optimized with ADF in AMS.
N         0.85410472348216       0.52659169369357       0.60858396706440
N        -1.07423271150159       0.73948270717914      -0.37401536563467
C         2.10386884203286      -0.05495636660456       1.10231535907696
C        -2.39651730909325       0.39942038933233      -0.93495923446717
C        -0.16409690037804      -0.14870419135694       0.05159794131605
C         3.23604143289462       0.10032190916504       0.08982392614264
C        -3.42811989489513       0.17106474713177       0.16438935010170
C         0.57980501259259       1.87766543440503       0.52373693261374
C        -0.63540145260210       2.01485858107099      -0.08524715472198
C         2.95974216655760      -0.62028172065274      -1.22379188288513
C        -3.13407658645849      -1.01566739220092       1.07260598425619
H         1.90756800954148      -1.11670344272780       1.31668341190330
H         2.34336422681299       0.44232089944817       2.05440414036102
H        -2.25377383764208      -0.49080313391505      -1.56921791712137
H        -2.70607665478090       1.25714397177276      -1.54906692518127
H        -0.23517994782893      -1.22493789336063      -0.03692312875624
H         3.40835482014994       1.17458682462049      -0.09372580419455
H         4.15395777633419      -0.29115386231573       0.56018672290430
H        -3.51585113190591       1.10646644179910       0.73978672366930
H        -4.39451325600116       0.03624653509766      -0.34944735822733
H         1.25754758229849       2.62535375758477       0.91599807683960
H        -1.22259790954501       2.91303147380194      -0.32063818695084
H         2.05657384422941      -0.22501531380935      -1.71408575867383
H         2.82188093195032      -1.70136447881972      -1.06135055647941
H         3.79817573169634      -0.48978299808901      -1.92241735776123
H        -2.20465364955976      -0.86928235428602       1.64756999075658
H        -3.05121100281998      -1.96031051162201       0.50799186028838
H        -3.94250212688512      -1.13670052116512       1.80862236576653
B        -3.47107274168970       3.92877325183620      -0.13457616234769
F        -3.21470505159437       3.21522275068900       1.08370631245542
F        -4.36051280715334       4.98015154736366       0.07005851025093
F        -3.96725259626125       3.00099693499985      -1.10643657575364
F        -2.19418466137685       4.41704103903412      -0.61594127551070
