38
C12H19F3N2O2 optimized with ADF in AMS.
N         0.56375444174352      -1.44061660630902      -0.44932291438331
N        -1.25155987055620      -0.44037939499375      -1.10308711507662
C         1.74901551787305      -1.80022379639283       0.34103794125466
C         2.85180899439996      -0.74866297637928       0.25415581733981
C        -2.36502393508249       0.51474044819906      -1.16762069563058
C        -0.41461574150227      -0.60343898803355      -0.06402328343249
C         2.51346153410224       0.56384137957071       0.95983229074988
C         0.35962051274918      -1.79219102742429      -1.76443700791664
C        -0.78127671772154      -1.16603244711632      -2.17465902345271
C        -1.90063482414130       1.88904209191462      -1.64744389618718
C         3.74312103059868       1.45448287459104       1.12313544953724
C        -1.04286109850498       2.62278403444601      -0.62295864429492
H         1.41657893591869      -1.95427744197328       1.38047637541718
H         2.09244852522471      -2.76884974411350      -0.05008863269269
H         3.07525780070680      -0.55079947360114      -0.81043168629497
H         3.74948136945224      -1.19638074728883       0.71867441243736
H        -2.81702148667274       0.56247945039468      -0.16340306434817
H        -3.10739107957332       0.07839414142698      -1.85203156020750
H        -0.51352220389645      -0.14585045601756       0.91069441220884
H         1.75505939696357       1.10865179697704       0.37260817171139
H         2.07338486476952       0.35512640392170       1.95522257316034
H         1.07637002946926      -2.38113741916631      -2.31875079745176
H        -1.23978642613410      -1.10986188059693      -3.15170805078327
H        -1.32704698135726       1.76336900824646      -2.58420071477222
H        -2.80970105403916       2.47300339150212      -1.87449671426159
H         4.19520558264176       1.66699312302406       0.14384418971370
H         4.50028735746309       0.96130102796486       1.75367471746291
H         3.48161959601566       2.41491048507484       1.59162838099794
H        -0.08934395717104       2.10041016950942      -0.45627282810865
H        -1.56422063557669       2.73129253710925       0.34378073638795
H        -0.78251314014552       3.62573656562491      -0.98985613862862
C         1.53075716912985       0.78640786805307      -3.20103254670863
O         2.25634427739688      -0.18173949605417      -2.86396504217681
O         0.36652326366533       0.82369527289706      -3.66980322409588
C         2.21017173378480       2.19413994603026      -3.04470194433411
F         1.31752650657847       3.19754961076460      -2.76095846883701
F         2.85148698993480       2.54985230885025      -4.20181637402619
F         3.15059476159300       2.23361718986775      -2.04478162267668
