40
C10H15F6N3O4S2 optimized with ForceField in AMS.
H         0.51930270028402      -0.47030341312685      -4.93813792722211
H        -1.15682986542287      -0.66934258958341      -4.29238621350938
H         0.01052433760230      -2.04493624146069      -4.20222899535646
C        -0.09057800366799      -0.94108152190553      -4.13890126187781
H         2.45129538048456      -0.07420762750758      -0.36452170380302
H         2.41897986928883      -1.16717089890161      -2.80267489324121
H        -1.38145913994974       0.47010440109423      -2.02279409762153
N         0.37095680628539      -0.48247866576320      -2.83525950874744
C        -0.34399264674505       0.18113319238940      -1.90645546800912
N         0.39435213614246       0.42349958427048      -0.80596864317222
C         1.61408232899367      -0.09890244851284      -1.04950633593108
C         1.59866200218172      -0.66146426053765      -2.30991254304985
C        -0.04332318733918       1.10420682436745       0.40976627625079
H         0.71138979405646       1.86882032523600       0.69482141724539
H        -1.00525913385422       1.62968285177300       0.21999530908879
C        -0.23741875350718       0.09110799607394       1.54188609284345
H         0.71212939491568      -0.46073296625140       1.71424218187866
H        -1.01706599489441      -0.64169102136478       1.23829333514342
C        -0.66477777263050       0.78665138192496       2.83854475944355
H         0.12942398140608       1.49409716694246       3.16267402517989
H        -1.60067606530790       1.36142888540059       2.66574182718646
C        -0.90901655551234      -0.22701762893369       3.95244540204496
H         0.02022583985254      -0.79675021309046       4.16693049334371
H        -1.71452127869647      -0.93436932476857       3.66052848467750
H        -1.22195030169241       0.30428608918071       4.87580598604469
N         4.61806568207833       2.49359770113677       3.39723753078900
S         5.62232327166155       3.78688052565871       3.32301250326868
S         4.33595414914246       1.51415425191130       2.11294535567747
C         4.70207661643405       5.22184684440547       2.80441508047880
C         5.33746061755907       0.04937483833045       2.25927685319712
O         6.19469130788744       4.04583227776591       4.68765001473200
O         6.73972877664370       3.53005789531066       2.35063903903339
O         4.65722300262020       2.21564121677880       0.82254102703267
O         2.89148597004455       1.10788836503869       2.11729161496679
F         5.53199267629583       6.32706526118033       2.79939563600364
F         3.65533178284634       5.43998223596780       3.68002885460576
F         4.20039204334218       5.02145734225805       1.53280671929495
F         5.14339790443893      -0.75779195604821       1.15401379637055
F         4.97794164781322      -0.64296293999668       3.40004901383377
F         6.67038691601867       0.40432157575702       2.33948282238538
