35
C11H17F3N2O2 optimized with DFTB in AMS.
N         0.56422738426760      -1.43124121266907      -0.50593690048791
N        -0.92354250159558      -0.51313750219233       0.75820299637136
C         1.79807824988862      -2.09684812005885      -0.92239451962276
C         2.49087555036253      -1.35047485681607      -2.06312507811903
C         2.92503911227548       0.06304271238103      -1.66389279690460
C         0.27306525641175      -1.10824195351802       0.75582992110667
C        -0.42431988506648      -0.95132993427227      -1.33239573254752
C        -1.35417758258729      -0.36644861013385      -0.53919320160432
C        -1.53834043015767       0.10955357889271       1.92447562531339
C         3.56454404175061       0.79424409365558      -2.84139511342471
C        -1.25765407850365       1.60963976537258       1.92727131255616
H         2.44701463580360      -2.14249682195517      -0.04218260567790
H         1.54574611973505      -3.11526061952679      -1.23715774656864
H         1.83112726841589      -1.30908554325265      -2.93604815062488
H         3.37039902152157      -1.93868768480676      -2.34423715728737
H         2.05804890471079       0.62666044347229      -1.30739651428841
H         3.64383109663311       0.00053711580805      -0.84250647473946
H         0.81014423414320      -1.46223546275233       1.61914525193560
H        -0.39249059819602      -1.07371358053346      -2.40033044409807
H        -2.61386712606481      -0.09024840687044       1.89168185778772
H        -1.11367266711748      -0.36373973990036       2.81341932486577
H        -2.28195844891842       0.12137059733865      -0.78131497633400
H         2.85605052007493       0.89114384567446      -3.66613288417921
H         4.44214161787518       0.25335500644851      -3.19890637846802
H         3.87372802322210       1.79187525688723      -2.53058640937534
H        -0.18276933108485       1.78613545318994       1.90696597755829
H        -1.67742377775603       2.05004710100110       2.83054573650779
H        -1.70960063665839       2.08246402739751       1.05603491320068
C         2.65527052088721       0.23481536780834       1.60937641278244
O         1.60085289837689       0.70232374008422       1.14624214329641
O         2.97911111256312      -0.93314117291381       1.78774354845006
C         3.73360940818180       1.34579889924286       1.99783880860502
F         4.76560349966521       0.85268202200861       2.68965823767660
F         3.19093175560633       2.32828087038809       2.73460988456058
F         4.23805025393420       1.91857267372043       0.88678844807761
