52
C16H34ClN optimized with ADF in AMS.
N        -0.18846089300890       2.03926913874209       0.18413212038289
C        -0.91422382378069       2.95609855409049      -0.79238625706960
C         0.41358145381232       3.00674864259011       1.17622839990414
C        -1.15001949226937       1.10398673860327       0.87804603326913
C         0.89772860495975       1.28444933554215      -0.56947986101381
C         0.02113040689330       4.14957930303072      -0.95528364035493
C         0.87092061793781       4.20760620533753       0.34351904359465
C        -1.81805281631253       0.09764688719852      -0.03817637837314
C         1.62558357476974       0.23580475516851       0.24931243306892
C        -2.88857655451074      -0.68637997605236       0.71872398741731
C         2.74470341712051      -0.38134162762899      -0.59430959548572
C        -3.58195178687974      -1.71230015971591      -0.17655686281023
C         3.50432738796562      -1.47696308006411       0.14886646893396
C        -4.66407365236829      -2.50618512086158       0.55039709791784
C         4.62108541600536      -2.10028334031929      -0.68616712556971
C        -5.35125743496071      -3.52709559659825      -0.35361371559190
C         5.37548167102500      -3.19611647732135       0.06213848035212
H        -1.10461028504484       2.37979472358063      -1.73355510291301
H        -1.85609092255247       3.23681679665022      -0.29554801784505
H        -0.39588569199816       3.28089984635010       1.86993481697816
H         1.20953974176768       2.50271468354471       1.73948477976217
H        -0.58509498637268       0.60958009717383       1.68434189364943
H        -1.90111588373190       1.75882369028255       1.35029676031465
H         0.39655882618829       0.86532728912211      -1.47710926376183
H         1.60150741676322       2.05211426593178      -0.92391887309994
H         0.65718927055298       4.01265615957519      -1.84313110426023
H        -0.56018979811529       5.06929653446629      -1.11264628052226
H         0.71099885698326       5.13692866652285       0.90960043925107
H         1.94612535925034       4.14829778587011       0.11885332019559
H        -2.24643659635517       0.59665966931034      -0.92383073375588
H        -1.07590280492978      -0.59637200100417      -0.46293606845898
H         2.06328957408291       0.65451995062041       1.17488834030097
H         0.93428091748813      -0.56800523625244       0.55381857659276
H        -2.44073193571040      -1.20314925751129       1.58987207243935
H        -3.64534905170003       0.01030300782491       1.12753919661750
H         3.45169496188276       0.41051541084289      -0.90352418232612
H         2.30761031366211      -0.78775268876425      -1.52351607519888
H        -4.01879061893243      -1.19376012464775      -1.04913089108582
H        -2.82598569295309      -2.40590738235020      -0.58799129690971
H         3.93342381896867      -1.06332444226590       1.08180297466805
H         2.79612622249153      -2.26876458906849       0.45780164961426
H        -5.41618669899267      -1.80630393862028       0.95950373036407
H        -4.21611974988919      -3.02111068277429       1.42076841833519
H         4.18901476718929      -2.51111224779663      -1.61638172308540
H         5.32568888802312      -1.30756374274590      -0.99763671612247
H        -5.82914666970437      -3.03061014459957      -1.21337022535358
H        -6.12663211607742      -4.08988124165844       0.18864106381035
H        -4.62288282193321      -4.25068400835246      -0.75370882605957
H         4.69561633343120      -4.01183258763216       0.35652493910188
H         6.17372259208550      -3.63073618351701      -0.55866560576335
H         5.83865981100494      -2.80013733562983       0.98054815797560
Cl       -0.93046455682128       0.79703905168058      -3.25328712712086
