28
C8H18ClN optimized with ForceField in AMS.
N        -0.36319968665208       0.35970518185572       0.03290924709201
C        -1.40675121005151       0.58857304823198      -1.00435044020228
C        -0.84002562014833      -0.81007198541401       0.82863915547606
C        -2.67714294375879      -0.08794842637075      -0.53377486494469
C        -2.17754144754196      -1.26497875900639       0.26161128860741
C         0.94216527759847       0.07632885936566      -0.63932638141673
C        -0.26601238571187       1.56882387873664       0.89224757433049
C         2.14733895037056      -0.04643565789082       0.32171523111346
C         3.37359269654097      -0.58916560719250      -0.40870493535699
H        -1.12971492000827       0.12790498230073      -1.98191380660730
H        -1.59292029684842       1.66894790199781      -1.20781810955578
H        -0.98215283116414      -0.55712629257893       1.90532528697821
H        -0.13540244907784      -1.67101391434749       0.80152434872240
H        -3.31458713752505      -0.40929985643349      -1.38627576579789
H        -3.25105671445476       0.59933785752940       0.12594089602390
H        -2.89398937520080      -1.54929518467967       1.06264348091101
H        -2.02064042585904      -2.13264428033510      -0.41792566851435
H         1.17306315833103       0.88440643048451      -1.37141673466678
H         0.85930282254918      -0.86859337800123      -1.22612284500649
H         0.15953146528251       2.42735116592130       0.32614814033408
H        -1.26843590470660       1.86912365917124       1.27222766168216
H         0.37512049079944       1.38544241332464       1.78184794587272
H         2.40814630490343       0.95301482954100       0.73014078682738
H         1.91517344705353      -0.72111865812517       1.17157200258738
H         4.23488288307870      -0.63440679744249       0.29063064358225
H         3.17341842051716      -1.61287961966744      -0.79060426639122
H         3.64005522438067       0.07325474326732      -1.25997973194537
Cl       -1.25031836019618       3.70063374035753       3.82468073826494
