42
C12H21F3N2O3S optimized with ADF in AMS.
N        -0.55528969703382      -1.70210103863478      -0.26126657317508
N         1.53631304119981      -1.23321552578329       0.08632076842473
C        -1.99837819719846      -1.82682654425245      -0.04564739148446
C         2.80000373436594      -0.88888415602541       0.76466421029698
C        -2.73771571656678      -0.55864846170612      -0.46293593176308
C         3.37692141061097       0.41118683689372       0.22281084172385
C         0.34861208735612      -1.38259471453089       0.67953498247800
C         0.08478488086455      -1.73942029641407      -1.48574491616018
C         1.40385070632836      -1.45694074932911      -1.26717587942370
C        -2.30023633505483       0.68129240558295       0.31381875480724
C         2.45492060578260       1.61749521693506       0.37921522242048
C        -3.05515704956753       1.93364536895953      -0.12333086350731
C         3.08120330273869       2.88956156556182      -0.18896405287810
H        -2.34355186300954      -2.70388230742770      -0.61300933093906
H        -2.14889087657466      -2.03805556580843       1.02422178985767
H         2.56472768961394      -0.81423000730490       1.83786517764992
H         3.47497357504473      -1.74056752641656       0.58429542814147
H        -3.81657382508132      -0.74046635448954      -0.31169819988893
H        -2.59318319156415      -0.39332149562757      -1.54548505526187
H         3.65607207242242       0.25394390934046      -0.83271677871211
H         4.32619274763952       0.58171323684022       0.75970646691179
H         0.14506589522630      -1.26222275701288       1.73511264028695
H        -0.44250618317353      -1.99184360336722      -2.39755445882939
H         2.28571037679703      -1.43732586385178      -1.91918964231612
H        -2.45690759856744       0.50797235405746       1.39505850645678
H        -1.21777678756979       0.84480993205501       0.17046865955982
H         1.49713782165306       1.42395721095414      -0.13941107197892
H         2.21008351399943       1.76697640087382       1.44821914770794
H        -4.14129155218987       1.81117480717432       0.01324636471286
H        -2.86986666093573       2.14835606660473      -1.18777840900870
H        -2.73496644315970       2.80972100024982       0.45827686211128
H         3.29395419964227       2.77143872004257      -1.26324071480842
H         4.03436219060216       3.11683955632173       0.31480043411618
H         2.41527674473051       3.75612913678776      -0.06490175523185
S         4.58166051084506      -2.88969074239475      -1.84752698938613
O         3.70442791464353      -3.41160355533937      -0.77478463876418
O         4.17160322949191      -1.54335403304364      -2.33330739321303
O         4.99438145667845      -3.83852458294741      -2.87833823553310
C         6.17733230702270      -2.52211846450081      -0.92566367996589
F         6.71067896885377      -3.65660235162427      -0.40514612154152
F         5.96060052131974      -1.65752733231729       0.12217812101469
F         7.10469646767358      -1.95051219198488      -1.73441011500753
