28
C8H17NO2 optimized with ForceField in AMS.
N         0.56795221360082       0.02120606825372      -0.01597041689762
C        -0.30516755538987       1.10949795462651      -0.53573392766269
C        -0.34229588808312      -1.02918615902679       0.51463558697156
C        -1.73288340158614       0.79781199453123      -0.12178649219543
C        -1.74900003407543      -0.69884134369836       0.05389423836201
C         1.44838760678114       0.53246341388234       1.06135902891287
C         1.41155545756266      -0.52898194706775      -1.10347842244360
H        -0.27879293486101       1.17067588262998      -1.64896264330992
H        -0.01549878993705       2.11819528170431      -0.16026943748265
H        -0.35230688752900      -1.04204540539451       1.62794912832210
H        -0.06337495605668      -2.05754547732425       0.18716984129045
H        -2.46863403274172       1.12687422663655      -0.88758747985195
H        -1.95905812006369       1.29171954711727       0.84930055181133
H        -2.51267539071912      -1.01511628628599       0.79782096030474
H        -1.95168240338556      -1.19143246960509      -0.92270709213026
H         2.14141289128869       1.31177712199575       0.67231968021023
H         0.84902194064745       0.98817660302340       1.88179304085182
H         2.05940605949453      -0.28981216968512       1.49684657440639
H         0.78263422058373      -0.95924014444423      -1.91532373620032
H         2.05276514547976       0.26539650795182      -1.54721174435607
H         2.07622722243942      -1.33638334795381      -0.72201684969737
C        -0.56360637765328      -4.42999434659680       2.94119985844331
C         0.31634872562737      -3.27405475573974       3.29717395071193
O        -0.11232287896273      -2.37773686829251       4.00552176405666
O         1.46155185808365      -3.21971459537980       2.87806726252220
H        -0.89353862879687      -4.94543056610360       3.86756475778844
H        -1.45489501355065      -4.06465492266326       2.38889318820280
H        -0.01782059699729      -5.15629836629125       2.30175243045901
