32
C10H16BF4N optimized with ForceField in AMS.
N         1.74096774401594      -0.03800026997245      -0.51390032772557
C        -0.63564246578843      -0.01382225096715       0.09482631081321
C        -2.07577644196817      -0.02736324008802      -0.42722148393754
C         0.37673294369591      -0.07176424667801      -1.05300581672559
C        -3.07566129371008       0.03150381796698       0.73407608454424
C        -4.51468508094557       0.02984341158897       0.22701359244668
C         2.36853284923988      -1.20694187257006      -0.17988830305058
C         2.35691930008834       1.16527393781001      -0.30465652992049
C         3.64866294079819      -1.18914760975510       0.37765079817131
C         3.63620758306711       1.21799259430422       0.25069167813903
C         4.28369967505261       0.03270949407356       0.59475981519296
H        -0.47603031460659      -0.88768437570920       0.76438353100989
H        -0.46502951833794       0.91469940351700       0.68321592571332
H        -2.24620356777391      -0.95674162723247      -1.01452833184849
H        -2.23328235595090       0.84876565532919      -1.09456447809366
H         0.22127085808976      -0.99891259771213      -1.64910826462176
H         0.21558546306333       0.78602093936198      -1.74408122537827
H        -2.90498269391510       0.95576336303873       1.32859225199075
H        -2.92734803712573      -0.84662592967457       1.40018442773819
H        -4.69640632051154       0.91360831924108      -0.42091387751079
H        -5.21249764326474       0.07317808998898       1.08974100628689
H        -4.71974899688788      -0.89729719434472      -0.34930931810026
H         1.87635622905898      -2.16002342228734      -0.33453495535602
H         1.85586567926007       2.09244426746380      -0.55790663787224
H         4.14064281596960      -2.11554201057776       0.64414113418612
H         4.11741505882982       2.17106478339769       0.41741362793337
H         5.27372921763652       0.06146905072274       1.03032139898757
B         6.50283495698518       4.68217654585852       1.85333786801361
F         5.45956662311454       4.31076480306201       0.96624440852696
F         6.55348154696061       3.76557292188494       2.93689011812856
F         6.25600943293522       5.98943409242267       2.34942910848368
F         7.74155831132498       4.66443769633595       1.15947553853490
