25
C9H14ClN optimized with DFTB in AMS.
N         0.97208940296462      -0.07647297536964       0.61360255684006
C        -1.34197174022921      -0.13384320961665      -0.17772775407455
C        -0.41957658023185      -0.26577017245016       1.03829734619612
C        -2.80464672862536      -0.14339563453528       0.27399304420244
C        -3.74547549477234      -0.01639784182960      -0.92147204164638
C         1.43312802223253       1.17483779159313       0.46859149341911
C         1.73447138004696      -1.14237670530853       0.32294286733914
C         2.72308018570525       1.38957501067019       0.02192556468037
C         3.02621568907710      -0.97542528846847      -0.12752550972441
C         3.53571139058487       0.30926474813465      -0.28392648428095
H        -1.14568412589074      -0.95404565790013      -0.87697911285393
H        -1.12483424140049       0.81360649970246      -0.67833596337309
H        -0.51206507982125      -1.24893443504352       1.50557223421954
H        -0.65783028682737       0.52518396821026       1.75739900865256
H        -3.01626791892122      -1.07263862552660       0.81481195077402
H        -2.96797165598026       0.69632712986833       0.95514285360993
H        -4.78021123876870      -0.02153167720847      -0.57862823540200
H        -3.55999303773289       0.91782132250275      -1.45262798233934
H        -3.60414838161264      -0.84707695319854      -1.61566313586186
H         0.72777241738090       1.98142528846233       0.73509035582070
H         1.29281051474178      -2.12195106560594       0.46264779276890
H         3.08033047982592       2.40595155227802      -0.08346504778788
H         3.62722062187359      -1.84691472391596      -0.35388902665726
H         4.54911082067836       0.45701354122100      -0.63728296660985
Cl       -1.00548243849760       2.81963427253437       1.34759178558861
