31
C7H16F6NP optimized with ForceField in AMS.
N         0.16294695467173       0.25746347623561      -0.05252445180093
C        -0.45509217344264      -1.04305204695203      -0.42209954112188
C        -0.92129232730372       1.03730258600017       0.61839499218088
C        -1.95483560233196      -0.83992292735765      -0.45104247024185
C        -2.18855047353007       0.19345933069514       0.61842332578292
C         1.30621566945307       0.07308974696628       0.89321642912091
C         0.60457473537671       0.97768674137727      -1.27513432976251
C         2.48091091140798      -0.74316224987269       0.32810076722465
H        -0.24298697850246      -1.82688295346209       0.34177297054430
H        -0.09833543933228      -1.43293446546122      -1.40275596137020
H        -1.14200897514822       1.99768244078524       0.09566568581812
H        -0.67471807634462       1.31631977854022       1.66870233648685
H        -2.50423806033620      -1.78310884449059      -0.24084091244857
H        -2.26266337845994      -0.43613544767845      -1.44113839620069
H        -3.09347208447793       0.80316371408712       0.40658371892137
H        -2.30301999141676      -0.31107860736784       1.60419081972189
H         1.70169719847217       1.06438358964826       1.21143054222233
H         0.95429387142453      -0.43859384657584       1.81888351017549
H         1.32887715529827       0.37784060639427      -1.86626725828079
H        -0.25730705752007       1.18740762257333      -1.94790687968484
H         1.08417704324248       1.94682796703371      -1.01202114711544
H         3.20017815482211      -0.95821664682388       1.14608777249829
H         2.14099703368579      -1.71099073879618      -0.09358389507096
H         3.02544895661893      -0.16949199204669      -0.44929751122582
P         5.44680405429281       2.61224945634609       0.16510466950863
F         5.31394285773415       2.28333114345016       1.84631704169189
F         5.11799986140528       4.27929196384910       0.42040873853758
F         7.10419224997051       3.04667183626771       0.29522039377545
F         5.62711971392759       2.68576130454741      -1.54203517364122
F         5.75090334372746       0.92383009729351       0.06894434147828
F         3.75488452901530       2.45725644059454      -0.08546158832414
