42
C10H22F2N2O4S2 optimized with ForceField in AMS.
N        -0.11268952310674       0.03000729016692      -0.07398009694807
C        -1.02635323275646       0.54604718272416      -1.14497498147234
C        -0.62999191289784      -1.29384237385579       0.40527971103183
C         1.22798369941805      -0.18529734037930      -0.72067486360273
C        -2.50042028407291       0.64822485263041      -0.71714990646126
C        -2.10467784114374      -1.26817367312065       0.85519383830389
C        -0.01893415454024       0.98321392473874       1.08663148287550
C        -3.01153469992239      -0.70513158870221      -0.23469367077426
C         2.36206084714497      -0.64991805092803       0.22615826752214
C         0.59362183028928       2.36050454614052       0.77166078574218
C         3.65764939241362      -0.87881989067164      -0.54666169082000
H        -0.99460846064664      -0.12945783887233      -2.03201390615579
H        -0.69434463764888       1.53587600543114      -1.52145559098309
H        -0.03876632249461      -1.66301313262560       1.27046895851176
H        -0.53874714536654      -2.06173700411330      -0.39733322481121
H         1.56349423641614       0.74177863635241      -1.23731404788393
H         1.13904394319277      -0.94559360418284      -1.53150084487392
H        -3.10743601377450       0.96767698035788      -1.59178962137446
H        -2.64046763263018       1.42033041664330       0.06697277000821
H        -2.22276698892878      -0.68341511936736       1.79115167668309
H        -2.42690925103117      -2.30715645920211       1.08459774121362
H        -1.01404042524833       1.17584528439801       1.53152794546951
H         0.56622455644634       0.53029763104874       1.91599580494988
H        -4.04311009450360      -0.59177082005552       0.16328206272477
H        -3.04867002885371      -1.41532621852886      -1.09022241497050
H         2.56941314206052       0.11355954986282       1.00295773576763
H         2.09743302405271      -1.60374393199767       0.72453554007390
H         0.62807009792307       2.95696539821419       1.70771746005643
H         1.63449334579995       2.28030843019573       0.40117165618337
H        -0.02437283919786       2.92855172278160       0.04883156689603
H         4.44788867721749      -1.21045096357524       0.15760379298557
H         3.51745958268995      -1.66710370887567      -1.31667047317438
H         3.98949734450871       0.06133893646699      -1.03673973638657
N         8.19855318394079      -2.57778763367666      -1.90885214734452
S         8.16020030667291      -1.23335131844869      -0.97743652397778
S         9.49426929492177      -2.92487341194332      -2.84515297671110
F         7.83608495547454       0.09537770787200      -1.94246112831583
F        10.75715114997043      -3.43331783795940      -1.87121493286642
O         7.08216268206274      -1.37046324156177       0.05846542066060
O         9.48789845872857      -1.03460695554711      -0.30147551274106
O         9.92485913525665      -1.69919261075309      -3.60128068065886
O         9.13874411016314      -4.01826937748138      -3.81182986825181
