16
C6H8ClN optimized with ADF in AMS.
N        -0.49592664945002       0.00449828484081      -0.27443312375566
C         0.11849093249328       1.20302968773929       0.00156522440306
C         0.13663739204933      -1.16071922978427       0.08807850311069
C        -1.78473362087513      -0.02906523214173      -0.94787587294187
C         1.36330031735729       1.26390349974752       0.53604921164348
C         1.38066270262378      -1.16345174904013       0.62718393263637
C         2.16207813656859       0.06089384239562       0.71024185223413
H        -0.47691441932577       2.09157916349191      -0.20408009145913
H        -0.44357258095900      -2.07147068570750      -0.05568614537520
H        -2.33598677223992      -0.92411062568256      -0.63167977261309
H        -2.36830874591161       0.85591063608396      -0.66194649849746
H        -1.65922438744165      -0.04635182165455      -2.04207806044922
H         1.79869486195798       2.23665351941904       0.76144336139829
H         1.82852670084250      -2.11047356560593       0.92625279289697
H         2.90312260834673       0.09666704243570       1.51352530415672
Cl        3.54449238106362       0.01638566246282      -0.81668648038808
