34
C10H22ClN optimized with ForceField in AMS.
N        -0.89183860617003      -0.15382844673740       0.03351893808371
C        -2.00617370554988      -0.24395561382982      -0.95942089875051
C        -1.22710563962337       1.02910561849512       0.88518095945638
C         0.40139282147723       0.07742559165972      -0.68986003254024
C        -2.81817660068315       1.03404421945130      -0.87764170602343
C        -2.63745231799261       1.47533810168194       0.54730556155769
C        -0.85762776621915      -1.38613743968542       0.88581725455460
C         1.64504383323271       0.16562194600455       0.22772681094827
C        -0.51723612049504      -2.68155693150811       0.12737429689342
C         2.88807785265147       0.57827886011017      -0.57077298197144
C         4.12612897725165       0.62744921243090       0.32109765960788
H        -2.70512110142361      -1.08238976641873      -0.73287306716886
H        -1.65301423742687      -0.40322816486829      -2.00432500125224
H        -1.14891255053348       0.82068303016762       1.97713233410051
H        -0.55831402509225       1.89760478429856       0.68357844435154
H         0.57858491191912      -0.72706679146676      -1.43785399286005
H         0.33098675568808       1.02056688313189      -1.28006428507850
H        -2.39394839041344       1.79736817151647      -1.56701735934756
H        -3.88998650830362       0.86362957147204      -1.12058354820514
H        -3.36794178829555       0.94922783475663       1.20123738759111
H        -2.76374700347159       2.57502873402364       0.65407701573942
H        -0.12977767312900      -1.27064035099812       1.71845280961645
H        -1.84626847178154      -1.53102312902623       1.37878419737493
H         1.48175874920220       0.90160159543921       1.04197759587780
H         1.84408548840523      -0.82324016893177       0.68940882207718
H        -0.63246295181410      -3.54482832546258       0.81614050576089
H         0.53358169875879      -2.67788704256819      -0.22523178889087
H        -1.19368824306844      -2.84208304748832      -0.73620026433432
H         3.06505146898502      -0.15138514187578      -1.39074322937501
H         2.73084605334682       1.58238813207895      -1.02129114431509
H         4.30198849730872      -0.36168528948596       0.79525342369410
H         4.00182015202701       1.39728472172872       1.11236835009942
H         5.01489754963430       0.88766569766491      -0.29035126339085
Cl        6.61602262969838       2.69873159793915      -2.24364591208116
