53
C15H29F6N2P optimized with ADF in AMS.
N         3.21975473656236       0.89594595236600      -1.42042189349852
N         3.20746671316314      -1.26909690261847      -1.56060005518311
C         2.03194389333679       3.00292623700270      -0.89496943001041
C         3.36761910452775       2.26480080718877      -0.89088048476689
C         2.17234771467948      -3.06879900206812      -0.19401298559872
C         3.27117711428702      -2.69398276770019      -1.18370104606758
C         0.97673352621921       2.27932216673519      -0.06809962746146
C         0.77613400307686      -2.63199930655899      -0.62427146424179
C        -0.36286330319529       2.99957735376997       0.00611776694131
C        -0.25767191083090      -2.87558684756087       0.47199798374294
C         3.52176796905584      -0.23417031024599      -0.76574771103482
C         2.68012345517690       0.57653500079665      -2.64946829204371
C         2.66908779844572      -0.78461356199458      -2.73537033562091
C        -1.36340433345886       2.21121606743081       0.85068707036747
C        -1.62151804662797      -2.28000904445279       0.13418334160225
C        -2.71296341314439       2.90676287265867       0.98852219379694
C        -2.63144193106702      -2.45728884418351       1.26439307832729
H         2.22491365130132       4.00835128497298      -0.48074885884446
H         1.68385384086667       3.16135923383113      -1.93272832329876
H         2.40850674307780      -2.61854182489656       0.78187015589556
H         2.21712891780869      -4.16457913898873      -0.06237505422194
H         4.12502617592818       2.77517068585256      -1.50654575264619
H         3.74015172743544       2.15389657025167       0.13617076258648
H         4.26968426635230      -2.88212606357251      -0.76194742806826
H         3.18511741400785      -3.25252586780177      -2.12762092800004
H         1.36406635019518       2.12135602010361       0.95086623683519
H         0.81296109057532       1.26713103599868      -0.47756263137309
H         0.47497019252296      -3.14102546022913      -1.56115237149415
H         0.78566830556153      -1.54756409170147      -0.83514467864662
H        -0.22178687526931       4.00569022869899       0.44572061863137
H        -0.77247934930230       3.15581125475390      -1.01104612931952
H         0.11504214016323      -2.41611008180714       1.40408215527612
H        -0.35783203763197      -3.96036530929453       0.66472200046625
H         3.88938487991655      -0.31065915337988       0.25548058971533
H         2.34543184108877       1.33519575312102      -3.34486109484072
H         2.31989974403619      -1.44527555468012      -3.51915832286604
H        -1.50334307379488       1.21223852102295       0.39972161767104
H        -0.92336342274443       2.03096806118698       1.84763276292712
H        -2.01078507313573      -2.73371781382325      -0.79712363714074
H        -1.49088025598725      -1.20157219096354      -0.07067380924484
H        -2.59942629492213       3.89483242520718       1.46359961513539
H        -3.18405587781203       3.06177283278443       0.00372595434942
H        -3.40395068287764       2.31282484717998       1.60578480132327
H        -3.60938134221445      -2.02758990245689       1.00069666889975
H        -2.27485438429361      -1.96129091609065       2.18100670570987
H        -2.77983707200809      -3.52436515044339       1.49768639890921
P         2.56119181252529      -0.18936443699200       2.80820331797479
F         1.68766024419400      -0.34431179021262       1.38352064779866
F         1.42809781232072       0.85082500723811       3.37602571431250
F         1.76215107014533      -1.48556362540061       3.41691656979160
F         3.45952072268455      -0.04012846538966       4.15933346533906
F         3.72170154583304      -1.21594880328000       2.13883179667979
F         3.39172199474626       1.09466730803506       2.10498845372733
