41
C11H22F3NO3S optimized with DFTB in AMS.
N         0.44237616573757       0.24715221278848      -0.06567448366606
C        -0.22748738400199       0.86908743713644      -1.26127957741733
C         0.51153120457195      -1.24479620555810      -0.22580231648400
C         1.83666287543328       0.82216453026646      -0.02838120006166
C        -1.58435013452414       0.25721341456550      -1.57990030405648
C        -0.83755471084091      -1.87612266139298      -0.54258593662795
C        -1.44926103920112      -1.24842107508101      -1.79180720926754
C        -0.28066616664391       0.60991304113028       1.17931618452098
C         2.74673601819034       0.27162034569394       1.06542222556214
C         4.16305779798106       0.82154195594884       0.84577093634353
C         5.12458367208534       0.29642899542488       1.90875986721902
H         0.44707868060910       0.71751916420771      -2.10806659168171
H        -0.31693995423832       1.93902442483232      -1.05818357710498
H         0.91083284451914      -1.65890453170103       0.70116774208844
H         1.20830646892352      -1.43936226074448      -1.04246208898842
H         1.72636283237549       1.90452724545661       0.08156366567938
H         2.28567460850625       0.60878617329368      -1.00110288628170
H        -1.94432469072878       0.73248126020766      -2.49597952690033
H        -2.30874920722944       0.46919552571894      -0.78685646151989
H        -1.52233360079754      -1.78164715970053       0.30650031041224
H        -0.65862407809150      -2.94107005074002      -0.71128226275349
H        -2.42974019406225      -1.68762756726881      -1.98893927024242
H        -0.79992869499978      -1.43912165360260      -2.65090597823467
H        -1.31010105670109       0.26600592890279       1.11991196282910
H         0.21028267292951       0.13753039487881       2.02731463956544
H        -0.26173235465602       1.69221564683640       1.29580837332107
H         2.78929655874603      -0.81876810482749       1.01603030734399
H         2.38541359072346       0.55772141928811       2.05837090230520
H         4.13970637099418       1.91589111232220       0.87699636584120
H         4.50875127060744       0.51527695082486      -0.14577948080434
H         5.18412844357715      -0.79168750769781       1.86525989563599
H         4.79320931091425       0.58779924021361       2.90695516449237
H         6.12041436907527       0.70504946154159       1.73933078061438
S         2.88411369658798      -1.04401151920839      -3.23944593556180
O         1.43504317141899      -0.86268317873569      -3.11414559924175
O         3.62121595173926      -0.45582630805484      -2.12850771763539
O         3.42129152716194      -0.80350443989158      -4.54909871627536
C         3.07028868064774      -2.86511601672711      -2.93565891689430
F         4.33984289005424      -3.23634180463041      -2.86074667689386
F         2.47259437739400      -3.58644608742428      -3.87462276405246
F         2.48618595871235      -3.16447774299294      -1.76103108532655
