42
C12H21F3N2O3S optimized with ForceField in AMS.
N        -1.12289137765729      -1.73418921690171       0.22156052054604
N         1.09995840726750      -1.71410395624541       0.30365119666148
C        -2.51757529478488      -1.46016604672117       0.56464668783717
C         2.45891720561741      -1.40243898867097       0.74417261678146
C        -3.01564572084420      -0.17866342810705      -0.11812254249505
C         3.03755772820497      -0.21834991743849      -0.04176658175788
C        -0.03994216016799      -1.44208979798140       0.96807945655250
C        -0.65303712347096      -2.21535970907151      -0.94735663514910
C         0.72617767938860      -2.20570196134593      -0.89545645080123
C        -2.22782235359197       1.05812608304575       0.33779525605596
C         2.19202263014482       1.05204661622613       0.12047617089139
C        -2.79343408123107       2.33531037656083      -0.27385338824285
C         2.82776616719330       2.23555276644994      -0.60137799912523
H        -3.14963919471152      -2.31739339581105       0.24672238837515
H        -2.62484765121826      -1.35786160613488       1.66689997210187
H         2.46221640538888      -1.15822858115795       1.82933042068067
H         3.10603971580045      -2.29428142998660       0.59886900835923
H        -4.08924732645386      -0.04192678626338       0.13773496279728
H        -2.93605151491567      -0.29009587990874      -1.22158694405214
H         3.10102797332016      -0.48686020441766      -1.11857538026424
H         4.06654269561843      -0.02194112546366       0.33118783469233
H        -0.08034551921722      -0.97621788905145       1.94486794770753
H        -1.26487253530915      -2.52099200712442      -1.78607819705692
H         1.40371540460830      -2.50081454677245      -1.68622498528326
H        -2.26215250397698       1.14126636965524       1.44594502765863
H        -1.16817855085955       0.96381948325971       0.02427106625430
H         1.18271669596131       0.88569099427246      -0.30951337287082
H         2.08296675399829       1.29902435200984       1.19901029605451
H        -3.84529206557171       2.48500397323484       0.04929441308014
H        -2.75090786582557       2.28269093104877      -1.38268019639226
H        -2.19034801165688       3.20516018029448       0.06297287864054
H         2.92987741348136       2.01538296432394      -1.68559392595066
H         3.82881523487630       2.45600704179433      -0.17410066275810
H         2.18325405087586       3.13203864826994      -0.48069256485841
S         5.53642873405424       0.07937772428483      -4.34883312505488
O         4.62345013853896      -1.06774012715536      -4.80557083132899
O         4.57917998833719       1.27765509152776      -4.27187640327463
O         6.37017495464420       0.38002502004593      -5.60283314970781
C         6.49784500132292      -0.24598610590068      -2.84425006013193
F         7.32746989275096      -1.33076375568603      -3.05232905796978
F         5.64012590913008      -0.52079405330719      -1.79909817202714
F         7.25900000724021       0.86435989582043      -2.53381268467486
