31
C7H9F6N3O4S2 optimized with DFTB in AMS.
N         2.26050144248679       0.20016560916488       0.29160564031162
N         0.70023219258074      -0.19827382332934      -1.13253382985513
C         1.69519962467534      -0.75239247779871      -0.44577254490033
C         1.63767812208312       1.39207798975842       0.04446265642237
C         0.64997652020644       1.14027055053254      -0.85429285510027
C         3.42704297551938       0.02542932735194       1.14146570820501
C        -0.15099246224554      -0.88820708164214      -2.08923431018139
H         2.00089913227235      -1.78300870867407      -0.49758116782258
H         1.94329066153084       2.30727770329401       0.52049804841993
H        -0.07032258217772       1.79439743918207      -1.31344081146981
H         3.49268751087467      -1.01786655368516       1.44317977677334
H         4.31987970329762       0.29316000615054       0.57460143621309
H         3.33198121165506       0.66764747948187       2.01581276103706
H        -1.19410785083845      -0.65415546297928      -1.87706381620953
H         0.11153071668577      -0.55655776207401      -3.09346068540213
H         0.02375184615624      -1.95771744154310      -2.00371580048790
N         4.76205306608371      -1.97055634582425      -3.52130935934873
S         5.18562516597766      -1.25334417043405      -2.15895085388816
S         3.20531189102812      -1.94550986784239      -3.88924973970895
C         5.14428208043173      -2.56743348327219      -0.81953030815760
C         2.81704738632585      -0.19499507263436      -4.47048534670876
O         6.57619537437571      -0.90858229658266      -2.23431358339903
O         4.25662499154582      -0.25169236028241      -1.65727020697387
O         2.28657324637931      -2.14253027254550      -2.77422163210611
O         3.01617928628951      -2.75955691152710      -5.05489510542153
F         5.71350442766977      -2.06997316892584       0.27729983017199
F         5.78058621770583      -3.66411433380105      -1.17666563119494
F         3.88762814433370      -2.88859142267652      -0.49671343598754
F         1.99197385455245      -0.25014829659789      -5.50577811932160
F         3.90978725504954       0.45251682700591      -4.82281065609625
F         2.20503729488863       0.49215371594985      -3.50315397381231
