61
C17H24F18NP optimized with ADF in AMS.
N         3.02506911526648       0.55119473189623       0.32927529791422
C         3.29399712214021      -0.44066965585796       1.45185166184243
C         4.42448556764107       0.95205650679729      -0.13089297895792
C         2.26801299619343      -0.07950142096723      -0.82071692954685
C         4.49319739225072       0.13273802404624       2.19171607531394
C         5.32784633232449       0.85253340346213       1.10535877277953
C         2.30905293833871       1.74797843204404       0.85926316421941
C         0.88764995537475      -0.60165910798077      -0.46638800415013
C         0.29205488459629      -1.33127224962791      -1.67379508595251
C        -1.08779799052104      -1.91594002003990      -1.38726792983096
C        -1.64728994304325      -2.69894486116838      -2.57359119455372
C        -3.02764038670293      -3.28638126632283      -2.29375289101425
H         3.55315351208716      -1.38921084916402       0.96534768252251
H         2.38671663505791      -0.55070703407814       2.05879731607397
H         4.36035111347695       1.95023070941040      -0.58539720254971
H         4.71797496255799       0.21685376431149      -0.88725748231546
H         2.90592875382920      -0.90040081112606      -1.17197300048052
H         2.21874496221700       0.68678695897855      -1.61171090568820
H         5.05792205997612      -0.68253583687035       2.66508506385653
H         4.18028420442578       0.83072405226859       2.98377837614743
H         5.66959842277319       1.83877905845007       1.44957377535917
H         6.21149845625204       0.25530437064465       0.84354738687397
H         1.35901239637230       1.43439017941746       1.30559518784992
H         2.93594203357075       2.22981735749870       1.61869135725508
H         2.12496054922682       2.44433202823340       0.03136943188248
H         0.95922309659308      -1.31260937135408       0.37432385989510
H         0.20907928898820       0.21394054285587      -0.16202849629565
H         0.97640457748825      -2.14071527915605      -1.97745319294962
H         0.22788391169346      -0.63636075037902      -2.53139852090897
H        -1.78950259830240      -1.10439306789166      -1.11561827500177
H        -1.02508430728585      -2.58471771175775      -0.50802138485899
H        -1.69431076070480      -2.03565524336003      -3.45635994098544
H        -0.94171636067827      -3.50880112634489      -2.83232243766405
H        -3.75513117674431      -2.49170914021100      -2.06250913146156
H        -3.40584952392402      -3.85040393672676      -3.15950535137370
H        -2.99480294721545      -3.97275137577441      -1.43238521940750
P         5.57736712732596      -3.43781409918601      -1.08286123733158
F         4.80176941209042      -1.96499016600458      -0.62736241750887
F         4.28686509670661      -4.33465568096659      -0.54515816551888
F         6.86666633118170      -2.54038696531206      -1.63101104204200
C         4.56626882056752      -3.14320936123264      -2.75918925119594
C         6.22470299057212      -3.28936281013110       0.85179101802513
C         6.60027808635558      -5.09063224388892      -1.54433723504105
C         4.94213928919813      -1.96103572072493      -3.70741922926345
C         7.04424332488553      -4.30238929338962       1.72325820651515
C         7.00144337285760      -5.55155696605773      -2.99075944392846
F         3.23345975532006      -2.89898338148482      -2.43680917092630
F         4.54900631714225      -4.25768324412057      -3.55679546998416
F         5.06298323364276      -3.12506143107801       1.60199809407492
F         6.93442374628111      -2.10459776205608       0.96899318143564
F         6.00970349485482      -6.19362881414496      -0.97897677388849
F         7.81724952529891      -4.90611133793726      -0.91880508905389
F         4.04167105331822      -1.91185987120989      -4.73177870090572
F         6.16815965544855      -2.09003309227840      -4.24335513500862
F         4.87872572061189      -0.75360936781776      -3.07183841794566
F         6.91561746339302      -3.94451404630870       3.03981536264346
F         6.57809355941164      -5.56254606852356       1.59980840457898
F         8.36550563445794      -4.27678393448202       1.44970485710876
F         6.02768328633905      -6.27580418016281      -3.58445966266934
F         8.09448100472341      -6.36032660945287      -2.90316755646464
F         7.32777146482517      -4.50608562240398      -3.78439737004321
