35
C11H17F3N2O2 optimized with ADF in AMS.
N         0.09400215271258      -1.54187481630254       0.38231853242665
N        -1.95406755706721      -0.85705133398839       0.17504581162454
C         1.48475990487839      -1.64224387574635       0.82993183071245
C         2.39819015053200      -0.74153429644288       0.00247110992705
C         2.04278896403591       0.74026204490950       0.10161931501170
C        -0.85863980658195      -0.77875503196731       0.94147923802802
C        -0.41579860365254      -2.09970744778678      -0.77593963260014
C        -1.70829687092731      -1.67561086804838      -0.91114691065125
C        -3.21122113634642      -0.11398821159516       0.38828563457048
C         2.98511773549251       1.61653943394877      -0.71900449492855
C        -3.20820174605461       1.18039910023227      -0.40707934338283
H         1.50853965862641      -1.36268031400700       1.89459709948235
H         1.77631231530051      -2.70078824301504       0.75532688910854
H         2.36477017915360      -1.06384174327913      -1.05379167877861
H         3.43319832174270      -0.90675358069321       0.34966626364470
H         1.00685573550267       0.89515679482201      -0.24798736631124
H         2.07288003215984       1.05040134898371       1.16317713634954
H        -0.74972883854708      -0.20383648878481       1.85207026613155
H         0.17660357872840      -2.76196608742434      -1.39577343508806
H        -4.01985088750768      -0.76784124717750       0.02840499153601
H        -3.30789004527362       0.05014126749358       1.47199442213646
H        -2.53994314037761      -1.83314099214108      -1.64515483311241
H         2.92416291428785       1.36091016120096      -1.78815704866615
H         4.02977582548727       1.48253948140925      -0.39843576921722
H         2.73324375993732       2.68196076710994      -0.61288397014320
H        -2.34533369678885       1.81212250227163      -0.14481629561346
H        -4.13227125961129       1.73807847396736      -0.19583294785043
H        -3.20128114638032       0.94308195174024      -1.48073143047396
C        -4.75200356004220      -1.79664213469394      -3.20213309709242
O        -4.10165719203152      -1.39618013143310      -2.18142151999495
O        -5.72993070794635      -1.31216899350099      -3.77761735913703
C        -4.22877129839658      -3.16340198665960      -3.78234672684159
F        -4.82085427483566      -4.22326534294689      -3.13486846674671
F        -2.86328007314040      -3.33692200843257      -3.62277483735612
F        -4.47712419386875      -3.32114554112220      -5.10976016880374
