32
C10H14F3NO3S optimized with ForceField in AMS.
N         1.11017887930730      -0.01428921573694       0.55074615837368
C        -1.24499005016163       0.00119122740510      -0.13987659439436
C        -0.27212274587954      -0.02046757449816       1.04332567225826
C        -2.70027619082903       0.00045880357648       0.33613866362704
C        -3.66497632950035       0.01859302915845      -0.84574552301404
C         1.74012900434626       1.17663327155423       0.31264096453689
C         1.73710038784498      -1.19851393242957       0.27486112562952
C         3.02971023860498       1.20162108145885      -0.22398955862493
C         3.02662198507071      -1.20940688145961      -0.26251750719086
C         3.67283991601121      -0.00031008342419      -0.51637257885434
H        -1.06296876881901      -0.89305460479643      -0.77586962228616
H        -1.05546865554189       0.91135221882144      -0.75050836258886
H        -0.45492495123104      -0.92486282645190       1.66655640208857
H        -0.45152195761141       0.86322191506876       1.69614484819608
H        -2.89268510582573      -0.91034873903160       0.94121659231444
H        -2.88902867702776       0.89377724275465       0.97055292989649
H        -4.71041573345014       0.01596095704586      -0.47204235633297
H        -3.50821749087637       0.93219799000538      -1.45801227430589
H        -3.51276641643075      -0.87959892216824      -1.48164234649471
H         1.23982639603836       2.11482825189163       0.52226629242666
H         1.23427212078456      -2.14158830695332       0.45464481431090
H         3.52077404760803       2.14587804068207      -0.42103882348347
H         3.51532369121667      -2.14800686853116      -0.48979674067415
H         4.66726614145330       0.00536184790942      -0.94379843806544
S        -3.38303297084350      -3.88473575001429       3.40131492840060
O        -4.32858541665144      -4.73299024138611       2.53787431088148
O        -4.01976783458678      -3.96230043840983       4.79681687570009
O        -3.69547152976081      -2.44910312383906       2.95568322667071
C        -1.63415733744680      -4.35611545780814       3.32409139663726
F        -1.18196498761926      -4.23805075502853       2.02377569905942
F        -1.49248108547807      -5.66459009380931       3.74498692292055
F        -0.89693411361503      -3.52518985955594       4.14562244358155
