32
C10H18N2O2 optimized with DFTB in AMS.
N         0.27580889872647      -0.96580505741304       0.41966194395644
N         2.11383163080702      -1.11966581520502      -0.65116511611676
C        -0.69996546360644      -0.53195526097118       1.40867879459500
C        -1.41212997332525       0.74300874382997       0.94369235312088
C         1.55405432290810      -0.56819718172072       0.42867515877909
C         0.02041188436765      -1.75794157650894      -0.67106007538545
C         3.49585607292068      -0.89927915151215      -1.05540333981161
C         1.19104141132699      -1.85654863300755      -1.35102369289407
C        -0.44513179463196       1.91242210347599       0.76995554689160
C         3.55235095912403       0.17028495590822      -2.14137165420772
H        -0.16206047458746      -0.34600973220290       2.34261602320548
H        -1.42198066082420      -1.33894468719068       1.56102267599404
H        -1.93180825650680       0.54404478986239       0.00077794556119
H        -2.16352848299541       0.99463683145658       1.69803391282332
H         1.99362122432810       0.19126304054269       1.30885891542734
H        -0.94870927591600      -2.18440815335413      -0.86396299647571
H         4.04190535574029      -0.56808477062456      -0.16679636968970
H         3.90908363728420      -1.84540215658829      -1.41632194290126
H         1.44035243959406      -2.38812562099326      -2.25309425929343
H         0.24807165515087       1.71697656432323      -0.04864492576234
H         0.13441254605603       2.06945654371271       1.67995773555796
H        -1.00179699765424       2.82147438288848       0.54326930318604
H         3.00028714649567      -0.14715637800570      -3.02654868835590
H         4.59125216972668       0.34833295763943      -2.41540422793685
H         3.12043596291132       1.09978030173694      -1.77134105459426
C         4.14826365903857       1.97400907376499       3.45351179832207
C         3.56784004286021       1.07352018196652       2.35763513391201
O         4.32391895842654       0.45790677703374       1.61081848279723
O         2.29155754863171       1.03849443415518       2.31015687106348
H         3.81491204299127       1.61306396476276       4.42555208872654
H         5.23504936671655       1.96723764968005       3.40965258031510
H         3.77722921951476       2.98867448775821       3.31626282089021
