28
C8H17NO2 optimized with ADF in AMS.
N         0.26738314427371      -0.15411165828850       0.46658870845223
C         0.13796051468172       0.68534823826999      -0.79431407305993
C        -1.13839929785199      -0.75715921595525       0.71789520731693
C        -1.34129613524242       1.01371719089152      -0.88882166115647
C        -1.97434065874014      -0.31809426159575      -0.47570789967749
C         0.66207594556095       0.69251299259791       1.63867129724698
C         1.29013114709646      -1.23738764788406       0.30186980738353
H         0.44377465563279       0.04827870191362      -1.63757885493631
H         0.81792516361540       1.54456306363277      -0.72189802026025
H        -1.49556661690726      -0.31199581344358       1.65511689682620
H        -1.00544287461196      -1.84774001182297       0.90279603563312
H        -1.62000685305532       1.35016185348753      -1.89799826469941
H        -1.60927867729490       1.81105212594460      -0.17496021886891
H        -3.03608478981787      -0.22798024142264      -0.20554056825052
H        -1.89879125405578      -1.04396480258815      -1.30347931711799
H         1.67266547414327       1.08436282785005       1.46042548106319
H        -0.05700412413266       1.51655100575951       1.72962264636764
H         0.62950293652100       0.01490861292659       2.51213168185165
H         0.97012970394185      -1.89829185724690      -0.51220024415656
H         2.25414117393303      -0.76334866980413       0.06976230566000
H         1.30762433586432      -1.79516525891456       1.25043701364571
C        -0.29282369257957      -3.90174010426235       4.14110012775912
C        -0.09193604615650      -2.94879641936857       2.95669130515562
O         0.35656698071446      -1.78474223343345       3.22263155645835
O        -0.40004251081569      -3.39299305655702       1.80827906811875
H         0.26629343650372      -3.56533525088669       5.02454230793631
H        -1.36453807365349      -3.93322188081528       4.39513552736071
H         0.00510666943290      -4.92297517378425       3.86249413844779
