31
C11H14F3NO2 optimized with ADF in AMS.
N         0.64363347554886       0.41045298693777       0.67673798679736
C        -1.65691769896350      -0.08062704434038      -0.08743504659942
C        -0.72329638907390       0.01447319753629       1.11650633408514
C        -3.12079404916486      -0.11534824918357       0.34945002215607
C        -4.05899065705067      -0.06203785884412      -0.85321172638054
C         1.01654141640021       1.70460182102108       0.79913983919356
C         1.43229096538659      -0.50102338783088       0.06147873618735
C         2.23132524216783       2.11678982111705       0.26838015540252
C         2.65007861985936      -0.12900791823961      -0.46837962741846
C         3.05726968793311       1.20406726011025      -0.37010748415640
H        -1.40926382110098      -0.97131762779072      -0.69527228392119
H        -1.49749133404470       0.80728819512450      -0.72173723197541
H        -0.63052543920244      -0.93684918332520       1.66356271071341
H        -1.07513934898218       0.81008534440889       1.78864972569791
H        -3.31186261983191      -1.02094082272251       0.95534591563279
H        -3.30879665750733       0.76930471622563       0.98240405543175
H        -5.10955198882985      -0.12665579945650      -0.53298296788827
H        -3.92654205483850       0.89677919371990      -1.37770519324094
H        -3.86466821223255      -0.88853841527320      -1.55620669678280
H         0.23663963716951       2.39106161848851       1.20619188321371
H         1.04305008832121      -1.51625342651295       0.00870217897152
H         2.49104764885412       3.17248547160422       0.34634993626935
H         3.26846176536631      -0.87747371868389      -0.96288074443919
H         4.00873248957566       1.52167137521656      -0.80047351702835
C        -1.90879880214307       3.30683699970408       0.12620811278430
O        -3.05070391908602       3.13923326089152      -0.32013995234299
O        -1.39604002899088       3.00570960239634       1.24816943923674
C        -0.88553520704876       3.92105787077380      -0.90091071131808
F         0.17493321243857       4.57476720194325      -0.31403117504457
F        -1.44052131415952       4.78510726620123      -1.78216393427328
F        -0.31718552516973       2.89476119358264      -1.65164645276360
