30
C8H15BF4N2 optimized with DFTB in AMS.
H         1.06507838112200      -0.40939897082710      -4.71990423162216
H        -0.62658113434190      -0.63590511154963      -4.19911456585410
H         0.53702909653174      -1.98309819223619      -4.07710317450538
C         0.40998165696616      -0.90296093453726      -4.00122545199833
H         2.71761735948821      -0.02510729120753      -0.10067418453786
H         2.80555758692134      -1.18592446413332      -2.57327189083057
H        -1.02849519847231       0.51087239540071      -1.99813631052628
N         0.77035702688299      -0.47494476106028      -2.66099461245713
C        -0.01365981363240       0.20135958295297      -1.81660890333055
N         0.70078261923632       0.43360779585309      -0.71338964826930
C         1.94657265222388      -0.10863300883595      -0.85208848593747
C         1.99350257389012      -0.67747821488847      -2.08394634422251
C         0.22845994950032       1.10685247002205       0.48879819231208
H         1.02107235290980       1.77976087607843       0.82723596762270
H        -0.65670243758370       1.69427702085758       0.23053041230061
C        -0.09499193480798       0.06892745120561       1.56784226966604
H         0.79981912018753      -0.52754424928894       1.76706027840112
H        -0.87404862941095      -0.60425041981436       1.19640214827620
C        -0.56159708568214       0.75436425736200       2.85544774170542
H         0.22271723781641       1.43113529110937       3.20931155826756
H        -1.45380350135152       1.35420423083229       2.64604491127886
C        -0.87756655183112      -0.27194472271995       3.94153154787574
H         0.00755370033752      -0.86412548694781       4.17528680460218
H        -1.67042518282220      -0.94505021796451       3.61309933668566
H        -1.20547643118976       0.23699522063446       4.84752321405969
B         4.95865623798430      -0.43782168720237      -0.95954902883763
F         6.30985913928873      -0.63943045587360      -1.01838849778104
F         4.24690526086558      -1.66900977930563      -0.95296719274927
F         4.48895046796138       0.29416223752600      -2.07944994802527
F         4.58341766761165       0.27053301385832       0.20790267963093
