39
C9H20F2N2O4S2 optimized with DFTB in AMS.
C         2.78200439960734       0.66620341465871       2.46523796251177
C         1.89813814218059       1.59569737377465       1.63933654413071
H         2.33152955699411      -0.20790410496588      -0.33053961979000
H         1.14564749029034      -1.34819943786528       0.35800054174436
H         3.70667598245455      -0.97673000882569       1.36416761317446
H         2.36520000000983      -1.47428417934334       2.40985894665193
H         2.41764394838204       0.58271589734413       3.49150533794331
H         3.79973719727381       1.05759671106951       2.49026874388589
H         1.35202899987799       2.33360190029059       2.22793670812512
H         2.48608002436167       2.09795214782600       0.86952663955866
H        -0.81739313883329      -0.41335172884413       1.38784995920174
C        -0.14295198666088       0.28026710241900       1.88489260612259
H         0.30639318784481      -0.20650238918738       2.74701867609104
H        -0.69234097625424       1.16421634925211       2.20471977869510
C         0.32506492377149       1.39361093891017      -0.24288555850892
H        -0.31060417547005       2.18252335239493       0.16795512733229
H         1.14791593583854       1.86086779514522      -0.78602852999128
H        -0.81066319300009      -0.41730792342758      -0.67681975168382
H         0.04070636238088      -0.96660586219640      -4.29104113301171
C         0.31804777100458       0.10742136441908      -2.44672791026122
H         0.66518237253682       1.01835450259921      -2.94329970779455
H         1.19951902111725      -0.47587500867159      -2.17348796367254
C        -0.54359077177326      -0.70535339475552      -3.40951069134107
H        -1.41559767571081      -0.13129251602673      -3.72632042936343
N         0.92652659382222       0.69075377869274       0.93969134921092
C         1.77597835174574      -0.48408512196563       0.56494694450200
C         2.72491260688862      -0.68811758803480       1.74277592447995
H        -0.88606984619706      -1.62566354390005      -2.93404994316130
C        -0.47390949270062       0.48829667363045      -1.18846677853005
H        -1.37112750266339       1.03843358129472      -1.49006236567072
N         5.37747768972620       0.52273501219312      -2.01964268267329
S         4.63261758802240       1.61335238088098      -1.16409813677922
S         4.69006785375830      -0.91282081836459      -2.09940232174082
F         4.80522525012712       1.11797139305549       0.40200790686593
F         3.33741202904563      -0.64695807462099      -2.97259602327958
O         5.36078158536091       2.83300286988925      -1.21777658950750
O         3.19373818225976       1.67425414203054      -1.28746183603705
O         4.17626713181731      -1.43721373013980      -0.86484709639394
O         5.49155642446287      -1.74878340733528      -2.92069867483573
