31
C7H13F2N3O4S2 optimized with ADF in AMS.
N         0.37302254270279      -1.29970000091174       0.45643171509043
N        -1.77452937159118      -0.99822742270901       0.45095229089283
C         1.75065311816018      -1.43442222713749      -0.02967561006114
C         2.64974198929111      -0.31248153770672       0.47985081380475
C        -0.65818409980288      -0.86652675420487      -0.27681826616916
C        -0.09616188078351      -1.73504785352624       1.67536043299311
C        -1.44710004538977      -1.54896011441890       1.67275116623492
C         2.21113426951158       1.07265704168219       0.01322991497561
C        -3.13364412607967      -0.77743795980817      -0.03240880000440
H         1.68978783459017      -1.45546449986735      -1.12807809500959
H         2.09636380984576      -2.42748418287631       0.29422292394401
H         2.69063295647286      -0.34631053659438       1.58313755502275
H         3.67016570681443      -0.53175277260742       0.12268503567079
H        -0.60425924806801      -0.56118409129217      -1.31502782089264
H         0.55430556394215      -2.18853866255371       2.41234835626664
H        -2.20357361669747      -1.81036895524148       2.40189733059440
H         1.20334806279548       1.31944842192017       0.38293103273048
H         2.19857772417164       1.13655656736602      -1.08675965524535
H         2.89736815003830       1.84685712403393       0.38750831890106
H        -3.08823564479217      -0.18669206320228      -0.95241617092702
H        -3.58267972077830      -1.75732769852917      -0.24311237629451
H        -3.69942860845762      -0.23351670188563       0.73372445365899
N        -0.49356516033138      -3.67565310852329      -1.06723390704112
S        -1.47556577815824      -4.55109212469014      -0.14227293849562
S        -0.82941866391068      -3.29142611985646      -2.58407329450467
F        -1.55847567420023      -6.00403583007796      -0.89052185577522
F        -2.22468164687244      -2.35585461545312      -2.45715689540087
O        -0.77582686086343      -4.80288151523422       1.10360585064189
O        -2.85354717990811      -4.08069537526586      -0.10749091897401
O        -1.21780436163318      -4.36776208118402      -3.46634695962524
O         0.16748445548180      -2.30544195034416      -2.98645687820210
