22
C8H11NO2 optimized with ForceField in AMS.
N        -0.71681233896704      -0.00063433258362       0.01212488028439
C        -0.03670361418233       1.18581920612145       0.00408655116434
C        -0.04123764655194      -1.18967663814299      -0.00069318083583
C        -2.18088837736433       0.00222690466617      -0.00319614171197
C         1.36011298989222       1.20118256056415       0.00930564586753
C         1.35552728351332      -1.21054035039636       0.00427185197229
C         2.05719574882169      -0.00614204688213       0.01433258436845
H        -0.57225709864576       2.12803237036455      -0.00462561847887
H        -0.58039104688667      -2.12973494921838      -0.01296391369624
H        -2.58279160142480      -0.89368694351951       0.51771847362189
H        -2.57942801135329       0.89852005097450       0.51968047665030
H        -2.54046507665240       0.00411773595433      -1.05338626966465
H         1.89602648902683       2.14176576042259       0.01006873295026
H         1.88817133068536      -2.15297506846822       0.00108771756710
H         3.13800667644600      -0.00879742916934       0.02478122751352
C         6.07460630067237      -1.92340005769773      -1.19806918606661
C         5.73247916389897      -0.51041263835926      -1.55039195907758
O         5.46613455611085      -0.21445909361117      -2.70391625673147
O         5.73454028024922       0.35326101337320      -0.68824945150184
H         5.53771366140770      -2.62778746997982      -1.86829161642571
H         7.16815122490289      -2.07636653526831      -1.31026136266363
H         5.78214258820112      -2.14021480984410      -0.14875443720568
