46
C14H26F3NO2 optimized with DFTB in AMS.
N        -1.28371638616099       0.53516509164268      -0.12296957826866
C        -2.26291730759852      -0.57575009136555      -0.33221517667055
C        -1.80188706999485       1.20722411244064       1.11696612688956
C         0.09855082318127       0.00930567841616       0.14911494575509
C        -2.56840562771004      -1.10381207694162       1.06835891449940
C        -2.27903876234929       0.07170890798673       2.01426704461411
C        -1.29655608489960       1.47775110657651      -1.28688807292543
C         0.75920341651949      -0.71762764229957      -1.01766612831819
C        -0.30768143854733       2.62668658965745      -1.14429366239326
C         2.09270898493207      -1.33017291375028      -0.56360984167893
C         3.11825227324760      -0.27628643542993      -0.13099572320601
C         4.48657851072935      -0.91447757541400       0.12889076709380
C         5.49812784272055       0.12777142073737       0.60215529749178
H        -1.84407346062672      -1.32605360013765      -1.00163600008496
H        -3.15620085168328      -0.14554439301558      -0.79224798825918
H        -2.62922943046453       1.85588430590003       0.81904601221312
H        -1.00331880243553       1.79999874630821       1.56526368163933
H         0.02569411934733      -0.64567054114449       1.01778936433992
H         0.69089980356047       0.87837387175414       0.43314993035816
H        -1.93262868330669      -1.95946915656066       1.30445915660040
H        -3.60892735404684      -1.42803033415315       1.12683376022625
H        -3.17075567061643       0.37540264666015       2.56459451479583
H        -1.49822193864420      -0.18471373680668       2.73319883785746
H        -1.08467622432955       0.89142288660887      -2.18470386936439
H        -2.31577986608699       1.86680374500057      -1.36329161573471
H         0.11958647781491      -1.52277429686803      -1.39150814695134
H         0.94633752976115      -0.02579437445461      -1.84414919250219
H        -0.53676993525948       3.36819502902013      -1.90917475959785
H        -0.38013097463102       3.09575797039306      -0.16519294827238
H         0.71736844919975       2.29120011591855      -1.28693542699295
H         2.49804486706999      -1.90841076730551      -1.40081457160128
H         1.90899914156282      -2.02515094053540       0.26234609781923
H         2.78073251124399       0.22022653830340       0.78285317360384
H         3.21131165167874       0.48545142508797      -0.91316527199869
H         4.38279186274051      -1.69359382850087       0.89137085896313
H         4.84944649192891      -1.39069504687934      -0.78910349687444
H         5.15329461940698       0.59971356592395       1.52196170873658
H         6.46129107339086      -0.34634496682728       0.79255423562237
H         5.63357581736549       0.90069165622134      -0.15582868763076
C         1.18607830615999       1.70058746609109       2.65883587983138
O         0.94826788955183       2.51009045032263       1.75476249282559
O         0.60873994819910       0.65419289186724       2.95720418786213
C         2.48097452008052       2.03208091900842       3.53829432262262
F         2.33396089254351       1.70534698634941       4.82904234824349
F         2.83126936087706       3.32401691260071       3.49228073141614
F         3.53941909357762       1.32560135609279       3.07357385990545
