55
C17H36ClN optimized with DFTB in AMS.
N        -0.52441357135653       1.72167625676388      -0.08873612860118
C        -1.35254015960734       2.28831650072273      -1.21008504149742
C        -0.22291163815280       2.81850491339350       0.89740163582585
C        -1.21815271059739       0.59463978122320       0.61607356886022
C         0.77187823283049       1.27377538587584      -0.71783134605340
C        -2.62270858219431       2.97521524681902      -0.73250437962160
C        -1.46822624073486       3.53605584691279       1.40085694746401
C        -2.27219270034599       4.10404894591657       0.23405490194566
C        -1.49983125485397      -0.63540252447346      -0.24471832180338
C         1.76247917091737       0.60863829562877       0.23156886115445
C        -2.23532928956692      -1.68452503995556       0.59768970534660
C         3.05854335484952       0.31730744378792      -0.53604267061232
C        -2.53260519266934      -2.94014426935481      -0.22742227621019
C         4.09905494090243      -0.34358834113102       0.37202511026078
C        -3.26668376524607      -3.99240910313949       0.60968635332800
C         5.39372780979412      -0.63568544875632      -0.39314822862015
C        -3.56423778448586      -5.24627326942387      -0.21054840120362
C         6.43812236632829      -1.29058253610787       0.50907106049913
H        -0.71119546782471       3.02367296815242      -1.71125650430048
H        -1.57915057551384       1.47646408137868      -1.90293159895341
H         0.32080470605194       2.37364616354841       1.73254613279391
H         0.42082989805141       3.53222055980772       0.37020338801208
H        -0.59210513354454       0.31557482934758       1.46711988418031
H        -2.16058071478977       0.98374669482739       1.00608386860423
H         0.51811255577479       0.59421459624147      -1.53460671830070
H         1.21914856319557       2.17844557918963      -1.14610801536252
H        -3.12002572283296       3.38379442908575      -1.61611490076115
H        -3.31045448917264       2.26519625583567      -0.26160627886296
H        -2.09294023900277       2.87052936538478       2.00569899576085
H        -1.12790327818958       4.34942494703779       2.04704847992772
H        -3.18408901876723       4.57859174226126       0.60404111570572
H        -1.67379072778475       4.85638353026922      -0.28799816497025
H        -2.11923009092094      -0.36862108815790      -1.10469929948831
H        -0.56824459699359      -1.06714437520789      -0.61803266423548
H         1.36348369144313      -0.32883709182622       0.63117858437355
H         1.99097877057186       1.26671385002968       1.07382630431614
H        -3.17328496804892      -1.25983515035913       0.97118040843064
H        -1.62053717887113      -1.95171941319999       1.46387899402136
H         3.46008647147123       1.25465242111312      -0.93342458036915
H         2.83939803462991      -0.34083910852071      -1.38351376220240
H        -3.14502174666078      -2.66883966180775      -1.09402257141705
H        -1.59255204589669      -3.35997582593353      -0.60122694121185
H         4.31581700603308       0.31751402230742       1.21806089280593
H         3.69218881057128      -1.27820681492163       0.77454870602976
H        -2.65267636587888      -4.26054749468852       1.47610325282849
H        -4.20545998235923      -3.56953511259868       0.98311444499875
H         5.17540911893960      -1.29768696360260      -1.23799852083926
H         5.79573841940245       0.29953938061349      -0.79621059266620
H        -4.08569397281496      -5.97948223589532       0.40480299740406
H        -2.63839593246984      -5.69342382627384      -0.57484551497005
H        -4.19261919739275      -5.00197475683101      -1.06803635402771
H         6.68453916480630      -0.63601371379814       1.34623279801277
H         6.06320590697790      -2.23520171232825       0.90606329759753
H         7.34880302772598      -1.48862974745932      -0.05649214164570
Cl        1.07050368717317       4.39281730517711      -1.60663945818064
