58
C16H22F18NP optimized with ForceField in AMS.
N        -0.75619885867743      -0.21780629964149       0.09232475547912
C        -1.87949916516641      -0.39713937332195      -0.87801700851306
C        -1.15717455345122       0.95075076250850       0.93554645016747
C         0.50411608527745       0.09210643519160      -0.65900013847160
C        -2.76711761391891       0.82953076659735      -0.80484203787384
C        -2.59782489122846       1.30005385101642       0.61191774502952
C        -0.62056728041614      -1.43512382315414       0.95617689754085
C         1.75662693891422       0.26993123255707       0.23305671711085
C        -0.18080587933731      -2.70403375629867       0.20395366271872
C         2.94492752804880       0.77930796611695      -0.59157239848958
C         4.19780508606726       0.91537823389598       0.26929197815674
H        -2.51946986776066      -1.27352853874601      -0.62314991743269
H        -1.53664197855502      -0.55446637615632      -1.92613809167794
H        -1.05185554474021       0.76249948272660       2.02843811983700
H        -0.54958695014129       1.85847914295655       0.71478561994130
H         0.72083585560433      -0.70700669356825      -1.40252679444037
H         0.35964388008777       1.02196520651383      -1.25743200483825
H        -2.39634030336574       1.60728481697273      -1.50895034549784
H        -3.82856817001907       0.59066787872549      -1.03372112317681
H        -3.28361078394519       0.73556291110794       1.28208577848157
H        -2.79404967026051       2.39036593138476       0.70705607973231
H         0.10243174359440      -1.25590400486983       1.78195068429215
H        -1.59147837762483      -1.65362232468476       1.45821496576087
H         1.55550628969824       0.98842948433489       1.05490016606116
H         2.04019455519865      -0.70310519857206       0.68540372602664
H        -0.27959004752254      -3.57902917476947       0.87949528225140
H         0.88259551060119      -2.63943139108311      -0.10279845757255
H        -0.80646419714102      -2.88717743155100      -0.69293453762850
H         3.15573518368174       0.07102742720176      -1.42248326442701
H         2.70028803787804       1.77199040327918      -1.02852021379575
H         4.48236402694164      -0.07040293162146       0.69524856183010
H         4.02136251912914       1.63564798061772       1.09639784431355
H         5.03797124929838       1.28833867747229      -0.35353458110692
P        -3.21700835983322      -5.87978363032915       2.38099385846863
F        -2.62971196898927      -6.42446057619578       0.85398039468561
F        -2.40191138609420      -4.42008318647776       2.79945656328135
F        -4.18730879528185      -7.19952903855741       1.85499995831537
C        -4.03774113559628      -4.54013016528192       1.25344977149443
C        -1.49324644879777      -6.67079683618207       2.76704201552010
C        -4.18984721847759      -6.21472585442123       4.00444314266238
C        -5.16969718170621      -5.03739889984671       0.32837871086686
C        -0.94790164387745      -6.52289595853483       4.20977808248068
C        -5.71322641374032      -5.98912548756419       3.98775697432314
F        -3.06696379848365      -3.98798204499633       0.42802414390410
F        -4.54180366128042      -3.50316288827147       2.02240539758367
F        -0.52907180531214      -6.11118852963366       1.93451253571703
F        -1.55789623697691      -8.02855589856996       2.49148029121468
F        -3.66804885842975      -5.40228123141727       4.99518719666775
F        -3.99444100786819      -7.53349037152378       4.38144406467024
F        -5.59435783920891      -3.98564952920829      -0.46406131118409
F        -6.25263298332974      -5.48460597058068       1.05256426246487
F        -4.73468204730254      -6.05037265065771      -0.50648915904345
F         0.36771307701287      -6.95237811672711       4.23004239035282
F        -0.96687472231288      -5.21062458739553       4.64240204031516
F        -1.64550225061108      -7.30829699742983       5.10401155971555
F        -6.03476441813514      -4.70919018606333       3.59227843886032
F        -6.20010879076270      -6.16290632416677       5.27143290598863
F        -6.34662284875394      -6.91089457820631       3.17500012958552
