46
C12H19F6N3O4S2 optimized with DFTB in AMS.
N         0.66922617449744      -1.88028905704372       1.38278594941246
N        -1.27606877469470      -1.07419738553881       1.83476976023253
C         2.11334008126140      -2.08666339984674       1.37593586592451
C         2.73574526397635      -1.48375580714606       0.11583175335535
C        -2.32277941067674      -0.28104025392763       2.47271274986419
C         0.03171044827843      -0.90445351146027       2.02497057139413
C         2.59567530162599       0.04120151278627       0.08060095049364
C        -0.24853315500180      -2.69828295352562       0.78220632896714
C        -1.47549075005563      -2.19022423937423       1.06789625538269
C        -2.54606343505192       1.05061910744817       1.75296881282015
C         3.25366424774941       0.63140686068182      -1.16502359147510
C        -1.35760089716038       2.00055683175359       1.88433152436102
H         2.52191075659157      -1.62448003481852       2.27662194600946
H         2.29089878341502      -3.16338911214346       1.42228174896688
H         2.26465632339360      -1.92294662729128      -0.76932997678969
H         3.79479911224329      -1.75628211266333       0.10524743053959
H        -2.02003521428372      -0.11551531890174       3.51068002900538
H        -3.23740351539991      -0.87796426430629       2.45627045881383
H         0.49244251764615      -0.12155217729127       2.59912399454964
H         1.53354297960182       0.31033509155611       0.09146412226991
H         3.05822220366432       0.46838994877374       0.97660801651768
H         0.04206626192889      -3.57357808970757       0.22892277584456
H        -2.46022821959397      -2.53432243252858       0.80523611029130
H        -2.76351627997777       0.86352998885761       0.69663018723819
H        -3.42904728406379       1.51268559651702       2.20329698814803
H         2.78919249779229       0.23304554757861      -2.06802583858024
H         4.31702902585739       0.39060730120397      -1.18546173703522
H         3.14238794638957       1.71554424700909      -1.16518688690384
H        -0.50199620584709       1.63145509651678       1.31728165437437
H        -1.06807842816965       2.10487627716173       2.93031477697940
H        -1.62736661550441       2.98191506658652       1.49512780456947
N        -0.24475400906931      -1.65460988016127       4.50843118396198
S         0.56689621872370      -3.03846974735482       4.47655405632538
S         0.19517762286349      -0.46687078799347       5.49443726774301
C         0.39677138948910      -3.92754076851790       6.11690573090926
C         2.00229483619890      -0.01023522057733       5.25179796945782
O        -0.13107813261976      -3.87222080886820       3.52446960896610
O         1.99256336589888      -2.86531933600969       4.27789229081538
O         0.07343230163224      -0.77400215354818       6.89404349733190
O        -0.49311515625481       0.69897935029331       4.97735689986608
F         0.66359950226357      -5.20907039686313       5.92588363728498
F        -0.83944906833964      -3.80663271767327       6.56564953961103
F         1.24094705057151      -3.43675105802431       7.00000199355621
F         2.17685547768654       1.23022228785890       5.67212356538639
F         2.29302014896596      -0.04483790741355       3.94273309632972
F         2.82372440005821      -0.80560135326304       5.89656343631337
