35
C9H18F3NO3S optimized with DFTB in AMS.
N         0.48904550436987       0.47605955607720      -0.22098808649286
C        -0.48612556085300       1.40961060650844      -0.88726381563842
C        -0.01791238897178      -0.92954201655982      -0.29468924129573
C        -1.90580065809400       1.27865530334933      -0.35857363938093
C        -1.43223913129066      -1.08715002514005       0.25349669581838
C         1.79463521025947       0.58932282635543      -0.97432124146008
C        -2.40563847967739      -0.15914080959518      -0.47039738664950
C         0.70883097538678       0.90816476322517       1.18603784168791
C         2.85791642702269      -0.41924029873439      -0.57413453197522
H        -0.45746532708569       1.19423570922956      -1.95762524816468
H        -0.11675730849525       2.42078428496622      -0.72457155697795
H         0.67095446245261      -1.56256227080916       0.26779386219478
H         0.00922440176722      -1.21967918252384      -1.34879454578721
H        -2.53345258193420       1.94265192812707      -0.95795668538361
H        -1.96590028981023       1.61614384682245       0.67970062135846
H        -1.44844568835348      -0.88499823063448       1.32803322357557
H        -1.72559818392227      -2.12999291663484       0.10647717507888
H         1.56180914947780       0.48911463169039      -2.03616752141718
H         2.15828099501429       1.60204853241270      -0.79824184712825
H        -3.39908049717791      -0.24709895596705      -0.02488725598238
H        -2.47544527661848      -0.44801047059829      -1.52385750200901
H        -0.23460220537771       0.90460722001760       1.72488685637585
H         1.40504174997914       0.22594528048294       1.66827020415172
H         1.11988666261842       1.91714545905998       1.16631886553157
H         3.76774311073906      -0.15276879130267      -1.11185372584237
H         3.07463774248480      -0.38470689161426       0.49234979911998
H         2.58797232208026      -1.43771461913857      -0.85114023237144
S         1.73030082679016       4.08576962366212      -1.48047129843523
O         2.90210007215728       4.85778848746518      -1.78658049544566
O         1.65419231861786       3.58319398880104      -0.10444809889814
O         1.35890432695264       3.07469782915906      -2.46475108162570
C         0.30135035145965       5.26381342157042      -1.54326625527122
F         0.14467879113773       5.79701383836087      -2.74592733768989
F         0.42428811746963       6.24317138288465      -0.65838245580034
F        -0.81985763027533       4.58392506722477      -1.24667111677012
