54
C14H30F2N2O4S2 optimized with ADF in AMS.
N         0.19199540241799       1.72527779328802       0.16561410383767
C         0.73835240073783       2.58738420154377       1.29187350023814
C        -0.38101992745462       2.76880424716885      -0.77784962898165
C         1.28560989316117       0.94127362631231      -0.52700888020789
C        -0.90157155527294       0.83266696575505       0.71096953365965
C        -0.28626915047500       3.70486823822048       1.47897584093757
C        -1.03000709851049       3.81678578957839       0.12219677263803
C         2.00615757527910      -0.04994646700967       0.36638211668872
C        -1.47343660899884      -0.16317536865426      -0.28157680646109
C         3.08538841408840      -0.78430200220373      -0.43272097951530
C        -2.67367020578120      -0.90168106317818       0.31405904066099
C         3.92509666916983      -1.71447446735929       0.43927765575354
C        -3.25349152169825      -1.93055449788269      -0.65559933966541
C         5.02270175873672      -2.41289787320198      -0.35919969491622
C        -4.45395245631510      -2.67719791418571      -0.08146599003591
H         1.70172497226408       2.97823634741196       0.94344794565716
H         0.90430249043274       1.95910749931268       2.17531951816767
H        -1.05611376608319       2.27923780385308      -1.49021093888093
H         0.47739231411863       3.19408795811600      -1.31716446697244
H         1.98371297711371       1.69701921615023      -0.91547235847395
H         0.81514941666528       0.44428741036351      -1.38922553270616
H        -1.68891997179625       1.50461007354563       1.08318100018791
H        -0.47190749410364       0.30883121977127       1.57794422904123
H         0.24311792859339       4.63402874028781       1.73262630813794
H        -0.98545993533884       3.47638894576273       2.29713623023851
H        -2.10902671299201       3.63866933006148       0.24323620429882
H        -0.89340151869845       4.80684240591942      -0.33338256447758
H         1.30592687617918      -0.78574680667493       0.80096415381961
H         2.49168666972247       0.48917327663292       1.19758622107064
H        -0.70577508834077      -0.90175296797129      -0.56623820987809
H        -1.79174717318330       0.34705330537213      -1.20676932961423
H         3.74457202627661      -0.03748685583428      -0.90407418097247
H         2.61362768729221      -1.36457488481940      -1.24810750507864
H        -3.45826899299843      -0.17262080036667       0.59032128503355
H        -2.37077385936406      -1.40763580762200       1.24956999020603
H         3.27228779484198      -2.46499236131486       0.92255535530941
H         4.38126227503871      -1.12089766551897       1.25202311894824
H        -2.46211650658581      -2.65150449254612      -0.93020223017465
H        -3.54534156809588      -1.41824661641550      -1.59018897016932
H         5.62370730562752      -3.08024003349787       0.27685535567963
H         4.59315506387288      -3.01819445669006      -1.17397716525536
H         5.70043052900173      -1.67243537910679      -0.81219087272689
H        -4.85432465335108      -3.40495324679338      -0.80306026195900
H        -4.17780486013353      -3.22670323479557       0.83264485505586
H        -5.26633468035882      -1.97944697458052       0.17782441937784
N         2.99307360041899       3.84286274300718      -1.15691318846398
S         2.46801832969274       5.29725000557110      -0.69738746023006
S         4.39189551905460       3.26985847254176      -0.60000565947927
F         3.52801035490842       6.34085285297045      -1.37015923495591
F         3.95614452788691       2.71348677775903       0.93279913448573
O         1.21876609868763       5.52370107689678      -1.40669043543655
O         2.53615868832517       5.55642992509771       0.73122722531717
O         5.43279640312428       4.23584703975679      -0.33332808471490
O         4.65688043049963       2.03574674369519      -1.31664229984343
