47
C13H28BF4N optimized with ADF in AMS.
N        -0.28124407363136       0.74479337950086      -0.12205989895027
C        -1.26342283161191       0.71313147019709      -1.28476018273770
C        -0.69893564739958       1.85382124094379       0.83909718831791
C         1.07871038355036       1.07010594992998      -0.73200418571118
C        -0.24011720208793      -0.56613694846078       0.63028192909603
C        -2.71078308837472       0.56505777019087      -0.84799552574440
C        -2.14899813284792       1.73693693452610       1.28587588835311
C        -3.10100266559702       1.70455676788504       0.09207611526776
C         2.22025794564647       1.24381883206188       0.25025257244761
C         0.27021542849096      -1.76280512468307      -0.15391629909359
C         3.48637347670389       1.63644025081980      -0.52042683096959
C         0.16921301563636      -3.03635732323341       0.68892667787665
C         4.67279906622857       1.86563215499173       0.41000564302070
C         0.69025810300220      -4.25907295457358      -0.06006012541272
H        -0.93906424528807      -0.09632134854157      -1.95245141888538
H        -1.11669977699348       1.67959360649748      -1.79379272455249
H        -0.52244690365485       2.79709667656149       0.30173920022816
H        -0.01006872257867       1.80225415161566       1.69246249028922
H         0.94139161481382       1.99487918208703      -1.30841735823464
H         1.28585249413353       0.25725598213873      -1.44417073845138
H        -1.25754668688050      -0.75825870849725       0.99262573542147
H         0.39539600924670      -0.38673958535611       1.51008940565437
H        -2.89389103209247      -0.41668009247359      -0.37432917208966
H        -3.32565581159820       0.58409656748177      -1.76347586921826
H        -2.35072217185580       2.61742561080317       1.91904345579456
H        -2.30646668555828       0.85366568426589       1.93101814539312
H        -3.02366023862802       2.66096943163172      -0.45435797611565
H        -4.14417427321687       1.59271392476948       0.42875022421376
H         2.41061457638112       0.32329134065988       0.83214030824367
H         1.98850455269995       2.06208012424344       0.94915401575759
H         1.32166099555729      -1.61301977352411      -0.44739626667267
H        -0.31191107641362      -1.90210704897890      -1.08039848774808
H         3.26678061918325       2.55501619453273      -1.08992839313170
H         3.73118018262013       0.84899885336021      -1.25720628113210
H        -0.88291724979011      -3.19813722982456       0.98443095789719
H         0.74076138913996      -2.90025326735725       1.62497535823722
H         4.91473671905119       0.95986339160616       0.99055172912105
H         4.45672349940664       2.67866052931006       1.12100480786646
H         5.57028028092799       2.15095806277566      -0.15937159506831
H         1.74808456268812      -4.12938124969735      -0.33802555062441
H         0.11812871987453      -4.42767428101882      -0.98633210508220
H         0.61208733864782      -5.16757772653902       0.55537992111525
B         0.62506715759967       4.47234969153975      -1.47828210216753
F         0.51369611013069       5.83253524487288      -1.75246704408072
F        -0.66425800274227       3.81591798248822      -1.63534182934208
F         1.04688830008441       4.24981598092303      -0.12342232251221
F         1.54449963599602       3.81802254964777      -2.34912938178397
