63
C17H36F2N2O4S2 optimized with ADF in AMS.
N         0.52304481713636       1.68530286505216       0.44611249160196
C        -0.15991207901958       2.62948025007391      -0.53243988429578
C         1.01575321756930       2.49462416960501       1.64082671843047
C        -0.41512338611604       0.60038206924248       0.92978155461614
C         1.71794608693211       1.09309708627460      -0.28730246602651
C        -1.27814972753472       3.44203308656463       0.09390209473127
C        -0.08518701071479       3.31408107781585       2.29418841282998
C        -0.75380253368800       4.24456147042301       1.28395149280569
C        -0.86949454144203      -0.40132262280463      -0.11817309370059
C         2.57078174644641       0.13174714935463       0.51640270981860
C        -1.89022278630628      -1.37110992201612       0.48416632746938
C         3.66923348270235      -0.44654850034242      -0.38082032624160
C        -2.36741060624716      -2.42035973775065      -0.51852179844779
C         4.66024468067093      -1.30042877964700       0.40598849295743
C        -3.39405005179567      -3.38832382015414       0.06708616538864
C         5.76275218651132      -1.89074576733049      -0.46967368448395
C        -3.86735909449362      -4.42909884867750      -0.94441987002437
C         6.75410036936065      -2.73529288410689       0.32655025828704
H         0.62953058432000       3.30464125767503      -0.89068509389216
H        -0.50082473185653       2.01870621555645      -1.37970387899384
H         1.47057987610485       1.78129039110341       2.33992871098199
H         1.80195262609888       3.15699049116212       1.24381201434854
H         0.11222555889016       0.08765980452463       1.74805020649731
H        -1.28296059689088       1.10891533836542       1.36691239975302
H         1.30988479366163       0.61150840514816      -1.18896639050181
H         2.31411267207746       1.95532282391749      -0.61567049710417
H        -1.65148194715812       4.11892672854539      -0.69256061774504
H        -2.12756771771238       2.80027572404979       0.38778668935468
H        -0.83164226002608       2.66789195348791       2.78882844840715
H         0.39895543048084       3.89855169806060       3.09417801611040
H        -1.57079285164062       4.80968534310333       1.75971154190552
H        -0.01068287374820       4.97292881322875       0.91300288090178
H        -1.33088571640025       0.11177208560164      -0.97919464295220
H        -0.01213476652769      -0.97792437932849      -0.50172559376596
H         1.96991880827078      -0.69584922077570       0.93298706592585
H         3.05436913124091       0.66579800601856       1.34937758466397
H        -2.76018117116247      -0.80284409979281       0.86164557886101
H        -1.44362971435228      -1.87826357009202       1.35956148289681
H         4.21321537381735       0.38235327484380      -0.86650840484917
H         3.21117174149211      -1.05121616851210      -1.18631858703353
H        -2.80565368277246      -1.91318833824439      -1.39874125653961
H        -1.49751807376469      -2.99297247614749      -0.89115799744016
H         5.11793470366633      -0.67490472021715       1.19418667172358
H         4.12178424025303      -2.11933845016523       0.92225702593355
H        -2.95449332514100      -3.89580073615098       0.94566105401717
H        -4.26082860165463      -2.81384500933101       0.44237619567106
H         5.30605466631465      -2.50395681856130      -1.26861491192404
H         6.29598294742468      -1.06574506147364      -0.97580144679283
H        -4.60521083226805      -5.11458840798421      -0.50167277165403
H        -3.02332279396803      -5.03454631598404      -1.31230854903468
H        -4.33713388241058      -3.94590155190118      -1.81664941335050
H         7.23758600469413      -2.13232176677976       1.11201241553324
H         6.24578340476988      -3.58084068548351       0.81913975451792
H         7.54580165114852      -3.14649646988588      -0.31776895460010
N         3.22762668071074       4.22581200971123       0.04395465956172
S         2.89099323462987       5.06716742597088      -1.28691058959382
S         4.62218590642383       3.43462655594604       0.23196213317862
F         2.58200538907458       3.84992409608208      -2.39889350516103
F         5.70376593410606       4.62063186161701       0.55919274503035
O         1.57249266308218       5.64665335020691      -1.07986910179072
O         3.97137563101618       5.82664831471906      -1.87399692650010
O         5.13632260111461       2.77610917866454      -0.95540273005052
O         4.49552127919918       2.69357411972423       1.47770092377874
