54
C14H26F6N2O4S2 optimized with ADF in AMS.
N        -0.75062119676143      -1.55686187742564      -0.47063316655949
C         0.00070890686983      -2.01698769859225      -1.70950086185886
C        -0.79192415168126      -2.83719441343965       0.34923386774200
C         0.02664731482433      -0.51021397545494       0.29852702269285
C        -2.13507640511726      -1.07722662499693      -0.85173807951249
C         1.12425948466949      -2.90224762763221      -1.18289441584025
C         0.57743357948704      -3.48913569974636       0.14515039733318
C         0.13819778296039       0.84645262388436      -0.37526276170582
C        -3.04040016112790      -0.76522046121975       0.32366538342771
C         1.09629342410552       1.75593040359748       0.39963798073662
C        -4.45784362582492      -0.48176693984202      -0.18342208630668
C         1.20161243242829       3.14387945718954      -0.22588264339193
C        -5.42001678628301      -0.15230729111329       0.95344465174482
H         0.32045429212253      -1.14291470396462      -2.28889953197777
H        -0.72872694915647      -2.60031660021829      -2.29185056783508
H        -1.61075758263577      -3.44277006001064      -0.06204858531709
H        -1.02552085909466      -2.58676587760995       1.39091121492798
H        -0.47358292446307      -0.41475730725458       1.27365904916485
H         1.02529340318188      -0.93481360166606       0.47570425434707
H        -1.99332743922558      -0.20093147596772      -1.50225465398604
H        -2.56502604163105      -1.88453140212643      -1.45994367061990
H         1.34998871545626      -3.68813645897708      -1.91551992542439
H         2.04839532665067      -2.32813098499604      -1.01604264622278
H         1.25616534554001      -3.27131115013210       0.98283692536607
H         0.45610815664123      -4.57835633051318       0.08838358451320
H         0.50706637587402       0.74107303976967      -1.40979034536870
H        -0.85085509379680       1.33085553885423      -0.42944893231226
H        -3.08850159578755      -1.63643374503565       0.99832408604756
H        -2.67245356867856       0.09983660445308       0.90461800742206
H         2.09530848264711       1.28498698797859       0.43491229566558
H         0.75309058130466       1.84368405779151       1.44630191690865
H        -4.43127703838605       0.35143584432690      -0.90943931912598
H        -4.81147121373260      -1.37502955527463      -0.72488816342354
H         0.22235705338887       3.64863063490466      -0.23506453486158
H         1.55804691532343       3.08131596723144      -1.26646284664069
H         1.90300790969384       3.78075529034097       0.33224987388682
H        -5.09662734318283       0.74373032408845       1.50788664084906
H        -5.48076505830314      -0.99103372197131       1.66517612763757
H        -6.43389355597821       0.03475201348822       0.57080517283859
N        -2.79274678689930      -5.89670152246139      -1.59885227180067
S        -2.18694571418266      -6.81697964408883      -2.78993237938582
S        -3.45882641209697      -4.47808576887596      -1.88119297742574
C        -0.37562368567023      -6.28257867190369      -2.83874193742401
C        -5.13547253824228      -4.77864396687530      -2.74465679490364
O        -2.10600215319316      -8.18086354184799      -2.29748563582563
O        -2.69216914201932      -6.51834145054185      -4.12244968689761
O        -2.74697283420018      -3.58236933511223      -2.80919589410658
O        -3.82902780287555      -3.91285607261542      -0.57770996921629
F         0.33284420805167      -7.11525297896587      -3.63407480471855
F         0.17984425052184      -6.31407595431017      -1.59321371276579
F        -0.23329798862114      -5.01780853775594      -3.32138827471556
F        -6.00116297292970      -3.80676343000433      -2.35093522209949
F        -5.64438336915081      -5.97730103870050      -2.39467174795132
F        -5.01466051641348      -4.71917663045833      -4.08267675892420
