34
C10H18F3NO2 optimized with DFTB in AMS.
N         0.47440338833842       0.46773153880025       0.09279009728497
C        -0.46648879703146       1.64424874687472       0.05601175184039
C        -0.02053362638225      -0.65421350277218      -0.77740671607878
C        -1.91913642967363       1.27146467375714       0.30907867846985
C        -1.47200729839659      -1.02513100290362      -0.50909582325785
C         1.78289109503864       0.97247299397071      -0.46344024166239
C        -2.36439140637121       0.20094882348781      -0.68322862314071
C         0.64694433890022       0.00846455930887       1.49428214164378
C         2.93669195675689      -0.01305029952081      -0.39318870298906
H        -0.37447769181187       2.07897132055878      -0.94242982634957
H        -0.10789035402001       2.36204771470515       0.79734063419448
H         0.63384290137420      -1.51186093318356      -0.60950531736557
H         0.08001203570227      -0.31478794112594      -1.81126061274361
H        -2.51217325178982       2.17970515324390       0.17317500007561
H        -2.06952021344347       0.92487993085822       1.33693085253479
H        -1.59313310181229      -1.44731622671065       0.49393550694049
H        -1.74656440181890      -1.79629202789783      -1.23351813163756
H         1.58088069069899       1.23634577302253      -1.50390971191890
H         2.03268996201852       1.88236925026938       0.08832498615798
H        -3.40913012357919      -0.06504435356615      -0.50745161490253
H        -2.26170660248050       0.58326502127194      -1.70375945305312
H        -0.32585567774275      -0.21971312066726       1.92314161026938
H         1.26608536234659      -0.88581252995505       1.51016205712909
H         1.12346900476056       0.80127568687841       2.06877345789447
H         3.78455452949727       0.45114245467481      -0.89689870532502
H         3.22858401458786      -0.23300740066955       0.63327504601181
H         2.70765502971419      -0.94478236702359      -0.90760575858663
C         0.07649516206720       2.30237588729106      -3.70841072694751
O        -0.40836072702485       2.62815818704615      -4.76371788278818
O        -0.18131591716825       1.41391473563901      -2.87907206338123
C         1.34791845045774       3.19992541675698      -3.19001420217519
F         1.14730383120051       3.57855823731005      -1.88990184182897
F         1.61401757975898       4.31054739267397      -3.87536867469510
F         2.48957746232797       2.46458405239634      -3.16178735801961
