40
C12H22F3NO2 optimized with ADF in AMS.
N        -0.41273348323205      -0.19151615360198       0.08121726322957
C        -1.27230258134381      -1.07095467019224      -0.82025808978561
C        -1.42993898184946       0.38092344116208       1.04060271684325
C        -2.56047837180322      -0.27406212612570      -1.02189491138839
C        -2.64285172638058       0.71218453032546       0.17459243558773
C         0.22841677563787       0.88982142998028      -0.77461956599879
C         0.61772376809438      -1.00593221154881       0.82113855989700
C         1.07505021866032       1.89405435677278      -0.01686072037440
C         1.69886126093268      -1.59701999437555      -0.06899990432326
C         1.68377895769263       2.88409916167114      -1.01304647951158
C         2.47944810344595      -2.67093504568820       0.68588827174407
H        -0.70736633126815      -1.25270688579777      -1.75390695475967
H        -1.43608594586089      -2.00328960752616      -0.25715211115574
H        -1.65637549565827      -0.42518269518470       1.75624443722663
H        -0.99189722304071       1.22705481069171       1.58422651332466
H        -2.49864629411446       0.25373721303513      -1.98606079043806
H        -3.42312924170566      -0.95430097366770      -1.05503474401534
H        -3.56612385839613       0.59711591634587       0.76100941888413
H        -2.60442946348836       1.75562669054625      -0.17186257532703
H         0.79875807626615       0.34416967054633      -1.54393249136994
H        -0.58807336987785       1.37605157112276      -1.32621841304407
H         1.04573197643035      -0.35801006054952       1.60223550755907
H         0.05047886749703      -1.80548783077846       1.32581765177183
H         0.47674426019545       2.45005060696923       0.72576207256252
H         1.88727614781823       1.38991224226566       0.53404213206041
H         2.38594681345127      -0.80396578332412      -0.40434951581396
H         1.25564747961907      -2.01456002079046      -0.98676640942487
H         2.31345587497296       2.36119949842319      -1.74823663182014
H         0.89768404460495       3.41528149892129      -1.57078431399569
H         2.30194208186143       3.62992694947136      -0.49340405688423
H         2.95219934336545      -2.26903732881531       1.59651792157805
H         1.82323639791506      -3.50414344438349       0.98374374900245
H         3.27363445026152      -3.08221915033750       0.04681206904845
C         0.04086229838975      -0.24905239244472      -3.94942869500030
O        -0.93253304799554       0.49249688456188      -3.68742990963618
O         0.72120804631541      -1.00401611888504      -3.19766594300883
C         0.53859606898742      -0.20480822792573      -5.43429196687526
F         1.07059194659976      -1.39033747086548      -5.85605841679762
F         1.52852078162621       0.74636073376150      -5.56653398346159
F        -0.44518212312617       0.12351940153474      -6.31985972360927
