60
C16H34F2N2O4S2 optimized with ADF in AMS.
N         0.98350051890932       1.43228797390402       0.21970912659388
C         0.65193755650355       2.50372348148367      -0.84080062059715
C         1.72666973444920       2.18569102299740       1.33000436767100
C        -0.28852220895429       0.84535758353673       0.79801962641962
C         1.87034031869293       0.36556198153287      -0.39052874361695
C         1.25159554278877       3.80816569542727      -0.32513048490349
C         1.27127823459864       3.62607045066268       1.19252715960575
C        -1.11561637041568       0.01904338642692      -0.17257990256636
C         2.34973000636769      -0.68747448841266       0.58799112135212
C        -2.47633283487300      -0.33573022002774       0.43413369236953
C         3.31629560823972      -1.63445036988875      -0.12789310623070
C        -3.31610709874638      -1.20840852670806      -0.49663087988249
C         3.93977869846887      -2.65350297715808       0.82048140343749
C        -4.68644151439881      -1.56415833122646       0.07658987734268
C         4.90998618758493      -3.59677122588084       0.11302504331696
C        -5.51148345909486      -2.42916803752035      -0.87275956475613
C         5.55973573218222      -4.59691605451083       1.06486138103021
H         1.07864706269329       2.18800219267316      -1.80148249784769
H        -0.44181954878194       2.55053711566985      -0.91777538075219
H         1.50228858266024       1.70886884254710       2.29223075844038
H         2.80095650506056       2.09521752980516       1.12189341004326
H         0.01306021501486       0.23161017518183       1.65854169652018
H        -0.86760961119412       1.70130865996105       1.17909027265590
H         1.30333211003008      -0.07872336380599      -1.22158154712202
H         2.73769110300417       0.90007522856555      -0.80867354156491
H         2.27631218177140       3.91943793905354      -0.70878864386277
H         0.66049559705007       4.67366310331239      -0.65494760097077
H         0.27098178728943       3.77672500869219       1.63372845408786
H         1.97640143249631       4.30424096198670       1.69270333358170
H        -1.27367382410907       0.56455389045428      -1.11881974879228
H        -0.58169033572471      -0.91196193773222      -0.42470244108594
H         2.88928012659439      -0.20691722544642       1.42109495727587
H         1.50883614171138      -1.26624644917052       1.01072457804902
H        -2.32956534277831      -0.86146371781058       1.39638317452457
H        -3.03121444264216       0.59245579098312       0.66640718174063
H         4.11207616354272      -1.03304471795080      -0.60099923495273
H         2.78412136271355      -2.16100522766818      -0.94250091381893
H        -3.45037505755714      -0.68650648412745      -1.46304295607902
H        -2.76269772709006      -2.13969728444773      -0.72182410962870
H         4.47707582235460      -2.11376779725387       1.62262428183810
H         3.14428799983621      -3.24559441983363       1.31406184028165
H        -5.23833980097225      -0.63366521939947       0.30524886177226
H        -4.55368988681007      -2.09096600305031       1.03945926128426
H         4.37297882055319      -4.13714778311634      -0.68842299521726
H         5.69008850263665      -2.99520236876148      -0.38715340939774
H        -5.68093944005636      -1.91164331959171      -1.83097280725278
H        -6.49460446228818      -2.67285347782931      -0.44314329247569
H        -4.99456280269121      -3.37746560854125      -1.09228561080349
H         4.80031291032479      -5.22892964738253       1.55374153897722
H         6.26123323224994      -5.25906984659010       0.53533539308483
H         6.12128595237242      -4.07486056393063       1.85665492013682
N         4.83279326137735       1.52842767732474      -1.31327895502183
S         5.45962536502011       2.29534309665282      -0.06153687201874
S         4.55239991268143       2.16335570595069      -2.76560750122578
F         4.48558431673922       3.65916660322016       0.11733227751751
F         5.92290718541568       2.96493300535022      -3.16567550310917
O         5.12621409543862       1.50648050143521       1.11777738750335
O         6.78356020669315       2.84723618528834      -0.23733914129463
O         3.52060602390584       3.19298485456924      -2.74712133681143
O         4.44131018446109       1.06863306842538      -3.70699174669488
