35
C11H17F3N2O2 optimized with ForceField in AMS.
N         0.02720740415289      -1.23469223520856       0.25235439874012
N        -2.01984955082464      -0.36930217228740       0.21521500914620
C         1.39242405482298      -1.53946360653206       0.67516497214167
C         2.41350123714373      -0.75309960634675      -0.15415716269775
C         2.26490219739604       0.76192405294157       0.04612448100711
C        -0.88097494444000      -0.49885946411401       0.92258320782522
C        -0.55901285346470      -1.58998004614068      -0.90877250252397
C        -1.82897676893760      -1.05083639751816      -0.93276831739604
C        -3.19571295332007       0.41377789212105       0.58435993823996
C         3.35677617786203       1.52556273977170      -0.69636808409362
C        -3.23819850254184       1.70940317152419      -0.21777361634202
H         1.52316538253642      -1.29755528065072       1.75276884359981
H         1.57838456220877      -2.62708631373764       0.54783817977908
H         2.29076971701439      -1.00498483702775      -1.23014300270117
H         3.43308876080757      -1.06810561664674       0.15846550850809
H         1.27579672736723       1.09742567191162      -0.33450947998725
H         2.32709988972494       1.00708979648700       1.12856249436464
H        -0.70450973289305      -0.04078446134622       1.88785738962889
H        -0.09306694332915      -2.18421722890929      -1.68382147790119
H        -4.11559325540874      -0.17965868323910       0.39347279882000
H        -3.16258321934237       0.66179772213549       1.66780392595406
H        -2.55319679515076      -1.13701397560632      -1.73245115977710
H         3.31416572558615       1.30037411810981      -1.78320094472117
H         4.35729818505403       1.24779884087245      -0.30163076237144
H         3.20912572257428       2.61675445534502      -0.55277211008016
H        -2.32240494976809       2.30650317025206      -0.01982245463855
H        -4.12638188377691       2.30547802128134       0.07937102073896
H        -3.30119375582075       1.48759048300193      -1.30425354698332
C        -0.41476745230081      -4.25943806027984       2.29512927823879
O        -1.26636454912081      -3.38534630808655       2.28137824948819
O        -0.47279143885315      -5.17011915219006       1.48508533648142
C         0.69498933617450      -4.22527057313233       3.30354601262820
F         0.62008047131717      -5.34712336123815       4.10777688906569
F         0.59757288005985      -3.09403258328854       4.09524599392677
F         1.91459410439043      -4.21540882912833       2.65246809329189
