37
C9H20F3NO3S optimized with DFTB in AMS.
N         0.48062795641213       0.33777832962435       0.21169309737651
C         0.00483424161644       0.40083961509366       1.64216399003288
C        -0.58733678980275      -0.19567169960241      -0.70279155502425
C         1.66884846342872      -0.58957995139678       0.14269072847717
C         0.84281929153099       1.73429458728030      -0.23423727845257
C        -0.54251882964261      -0.90280358944119       2.19988744087663
C        -1.91988643366217       0.53790866223299      -0.64881217054852
C         2.38792788705751      -0.63023406486525      -1.19574417815567
C         2.00993120688626       2.37668603317430       0.49880380370084
H         0.86319540084002       0.70740932040156       2.24606757377114
H        -0.75558076767193       1.18334025280245       1.69425378255994
H        -0.19008929858677      -0.14353597319712      -1.71876706281980
H        -0.73423358158255      -1.24710275015727      -0.44608870985130
H         2.37060439263730      -0.27547722322986       0.91690488471027
H         1.30348401956465      -1.58737745412255       0.39110542467317
H         1.05467619039019       1.67836391333308      -1.30502334323959
H        -0.05167876366759       2.34578749703565      -0.09459401239274
H        -0.82665454370380      -0.70997217486512       3.23444152265262
H        -1.42329588992885      -1.25346148976304       1.66371999066856
H         0.21247687381414      -1.68580955040798       2.20223565664891
H        -2.59073586388413       0.04803731042914      -1.35471794243650
H        -2.37332675267512       0.48906887350529       0.33892751905447
H        -1.82200605318860       1.58120260232457      -0.94294988817732
H         3.20356622406568      -1.34597500474964      -1.09201451851866
H         1.74319073618162      -0.96243290814312      -2.00861079509453
H         2.82218359373856       0.33336213721874      -1.45408213075440
H         2.16490380566553       3.36010536600661       0.05469312713263
H         1.80168602673347       2.50596100189391       1.55828262694956
H         2.92843477743715       1.80368933355763       0.39719588553153
S         3.78156355950646       0.49871195063291       3.12172588372719
O         4.13391181165406       0.34856873136747       1.71407114895242
O         2.48288824941566       1.13622932470309       3.32068900980947
O         4.83556770694956       0.94754508651596       3.98590197556676
C         3.43037981582680      -1.25482816789454       3.62823338471845
F         4.48750045700783      -2.04377339341838       3.50659039219267
F         2.46636693073313      -1.74671164119509       2.81707882854072
F         2.97720125410298      -1.34166060748435       4.87151352814137
