30
C8H20ClN optimized with ForceField in AMS.
N        -0.01327810891407       0.00809106147430      -0.00378998989928
C        -0.85445532614373      -0.26420479044590       1.21352558974791
C        -0.86642731127716       0.24323382609107      -1.22062012869945
C         0.86074573879791      -1.19030840140984      -0.25634919992025
C         0.80711485428926       1.24368526870214       0.24898332446511
C        -1.89205644851500      -1.39658105184018       1.07576609531674
C        -1.94796179888215       1.33425231458973      -1.08379744331177
C         1.91260177216366      -1.03383113857210      -1.37285682220141
C         1.86310290792808       1.13364612309437       1.36678248914526
H        -0.20981186180136      -0.54933060618678       2.07297059745539
H        -1.39216210571280       0.65426985140806       1.53679519885757
H        -0.23507213624927       0.55105924792164      -2.08198436182738
H        -1.36742858153723      -0.69686626264616      -1.54078747393568
H         1.39200623871387      -1.49560675926404       0.67197312345677
H         0.24112226005399      -2.06653375205603      -0.54520042640524
H         1.32621896041439       1.57093261555714      -0.67860581138150
H         0.14967922689921       2.09250781023898       0.53647846038962
H        -2.45593597784080      -1.48108158662240       2.02845862073495
H        -2.63357949666583      -1.19469662180802       0.27847872813881
H        -1.40707890650541      -2.37705264536774       0.90002153291654
H        -2.51850552501042       1.39317708686917      -2.03445624386796
H        -2.67757898039719       1.10723539046300      -0.28230540625417
H        -1.50150069618849       2.33388290799451      -0.91427863077067
H         2.49399345637592      -1.97667627108263      -1.45053040305251
H         1.44046055294776      -0.86507943218376      -2.36064984269872
H         2.63690339016600      -0.22444694780886      -1.15696838057206
H         2.40185594448764       2.10106902869142       1.44600759867804
H         1.39817573260846       0.94364872212407       2.35408198476018
H         2.62201018541154       0.35764871056229       1.15075359934461
Cl        4.57159798648320      -1.97791088928744       1.11015695589054
