32
C8H18BF4N optimized with ForceField in AMS.
N         0.43210279678741       0.24747416191054       0.05527936937859
C        -0.51928375287985       1.28764365980115      -0.44910515970617
C        -0.07989754070977      -1.11965680578835      -0.26252676360047
C        -1.97745800138019       1.08780357523531       0.00575034112875
C        -1.52284518185661      -1.36707418891844       0.21044323779909
C         1.73208593347830       0.47797492100095      -0.65724021312132
C        -2.47072034871554      -0.31097361826443      -0.34574622500436
C         0.63459041424468       0.41135202564314       1.52035820668470
C         2.88456994857050      -0.46791299725287      -0.26974027834275
H        -0.52713300050104       1.29570595046626      -1.56419134471933
H        -0.19088178563556       2.30255124578594      -0.12859473846430
H         0.55430075818437      -1.90127749900946       0.20835896925185
H        -0.04646261729236      -1.28989046344977      -1.36022795249371
H        -2.61974409174951       1.83305789219846      -0.51113193586399
H        -2.08833467900752       1.27248531531731       1.09393398580839
H        -1.57281027183059      -1.37960442914198       1.31971125158487
H        -1.85188661913723      -2.36722077699708      -0.14555500881765
H         1.59015271904116       0.38144636593973      -1.75832313012270
H         2.08587691470122       1.52015235479059      -0.48169021501644
H        -3.48589610717441      -0.46370781577311       0.08021040649256
H        -2.54183332033444      -0.41505060964947      -1.45001647528288
H        -0.32000413365984       0.40524310995975       2.08108302241723
H         1.23865949221500      -0.41918626753619       1.94345495650293
H         1.14673522814591       1.37291953974100       1.74767864133917
H         3.77595341525941      -0.21125694418500      -0.87981972858127
H         3.17206806493445      -0.34789980633746       0.79385686260764
H         2.63897018845623      -1.52704225208803      -0.48385181637017
B        -0.63068393242793      -2.78937755302208      -3.84010842463410
F        -0.97850089423554      -3.62674308705658      -4.93273982590261
F        -1.69021037605501      -1.87859052716507      -3.58621174834178
F         0.55007549538166      -2.06476913266226      -4.15397615428464
F        -0.40419645631735      -3.58712047169248      -2.68681550582514
