54
C14H26F6N2O4S2 optimized with ADF in AMS.
N         0.35268194977381       0.62858851417762       0.58430599619403
C         1.63111254057540       0.08570132374859      -0.01511602621852
C         0.51590000256044       0.31540760944178       2.05836204028641
C         0.29143489122719       2.14373421946196       0.40333917846530
C        -0.85230878106873      -0.06542921616479      -0.00767608239308
C         2.72711620364288       0.39206109517684       1.01260411598272
C         1.97991991957409       0.62763222846654       2.35180429355345
C        -0.11917674797657       2.61320226266118      -0.97865279008052
C        -2.16794329768904       0.32736167267173       0.63371131153483
C         0.06638641815188       4.13247474991009      -1.06365560611756
C        -3.34558627075913      -0.21364553335546      -0.17951241929954
C        -0.52388252835429       4.70811363388720      -2.34688221132095
C        -4.68580300614432       0.12297743330570       0.46961828375265
H         1.78260779702018       0.53723991423670      -1.00361709339678
H         1.48352702176689      -0.99753617396021      -0.13640729101518
H         0.29669479514296      -0.75806232467473       2.16967432632671
H        -0.19468879887245       0.91812674524496       2.64053621607571
H        -0.41870095466683       2.52695195596162       1.14950961680205
H         1.29511555378512       2.51284963626734       0.66022765829068
H        -0.84569112467508       0.16981974420488      -1.08270345279702
H        -0.65859559219830      -1.14505531027768       0.10381167791132
H         3.42607384176024      -0.45453661471228       1.07216211942658
H         3.31258933136825       1.27585940069107       0.72278726962636
H         2.08450122917739       1.66846117327789       2.68899254449183
H         2.35343356264192      -0.01623237227059       3.16024609891330
H         0.46826334985008       2.12432699127881      -1.77774863502173
H        -1.18557704505290       2.39356319043344      -1.14813702260351
H        -2.21780882089038      -0.06110779474820       1.66476787511502
H        -2.25450626960494       1.42173338183006       0.70641843483252
H         1.14236637766114       4.37545018706587      -0.98825215610646
H        -0.43126265752654       4.59220188758939      -0.19418066877247
H        -3.30783268469455       0.22500750112148      -1.19320861416140
H        -3.24731661170720      -1.30910270253654      -0.30076656767234
H        -1.60690490867420       4.51694025437292      -2.38032642999660
H        -0.05890712712949       4.25888916443341      -3.23987002566312
H        -0.37192316617700       5.79665241798031      -2.39626137881455
H        -4.81143768466016       1.21138000262924       0.56863607306825
H        -4.75773687311238      -0.31648414618918       1.47647865550256
H        -5.52218983051377      -0.26400347082036      -0.13107162937111
N        -2.31592270699403       3.52618721797450       1.74682652185941
S        -3.54474469029299       4.14666793765690       0.90059495303016
S        -2.13186900852570       3.59405028790080       3.34618052919181
C        -3.32082773628646       6.03458095219276       0.86673384941265
C        -3.47486741336084       2.50941458258543       4.14319810781928
O        -3.29193331751607       3.74757473459350      -0.48372027967811
O        -4.86247087309659       3.94822883556854       1.48880396346358
O        -2.32124093584537       4.90273556470533       3.95251270601829
O        -0.90686073860788       2.82741823801216       3.61002937365512
F        -3.97606600494614       6.52409937800715      -0.21479802724867
F        -2.00925876077970       6.36555801034055       0.75484909359512
F        -3.82576725666451       6.60967449794656       1.97146448534771
F        -3.05988835591645       2.16713294501096       5.38982959561132
F        -3.65188412894279       1.36372425741552       3.43047532784364
F        -4.65091741175612       3.14643365197076       4.24617576244884
