39
C11H18F2N2O4S2 optimized with DFTB in AMS.
N         3.30331440688861      -0.04818378041361       1.11229138102152
C        -0.14574098592195       0.32409242330909      -0.44825541076415
C         0.90659835796005      -0.05406752766938       0.59843271685037
C        -1.55476863283855      -0.03460673147122       0.03288057907063
C         2.30435136631277       0.31572232810493       0.10038680888799
C        -2.60827189019307       0.34388314693851      -1.01313295195963
C        -4.01583549169467      -0.01171623818448      -0.53810241718973
C         3.76502169960611      -1.30809192619464       1.14862728965531
C         3.75542152556069       0.88653543152449       1.96222545699192
C         4.71775658850324      -1.67461569676682       2.07538342619043
C         4.72303541421369       0.57183379266768       2.89263788566596
C         5.21715774245232      -0.72367085036238       2.95547221917373
H         0.06902529888981      -0.20243172018490      -1.38381369577397
H        -0.08739936701983       1.39889527328226      -0.64749813343133
H         0.70787836518283       0.47386221880651       1.53653891775792
H         0.86477482074056      -1.12913125645611       0.80052999888227
H        -1.60782484076110      -1.11010574631406       0.23425941450988
H        -1.76380399606548       0.49152825031053       0.97065221984032
H         2.38507879353665       1.38932650571302      -0.08272531102328
H         2.55386311379090      -0.21781972212598      -0.81950957900294
H        -2.55153206474111       1.41900964820812      -1.21292869253025
H        -2.39556564289396      -0.18233956843358      -1.94961042007208
H        -4.25386410176027       0.51935825354058       0.38452156471275
H        -4.74664214338938       0.26644508384046      -1.29745754775647
H        -4.09783253767725      -1.08358958881901      -0.35279471722579
H         3.38577259743320      -1.99485279927743       0.40252226248446
H         3.36044181818141       1.88889197731281       1.84939108874698
H         5.09347534160003      -2.68945889733940       2.07518943280774
H         5.10555313790468       1.35023652312055       3.53997630283633
H         5.99643013989994      -0.98160087994912       3.66189744556431
N         4.86841472484071       1.00741875112349      -0.95964836085237
S         5.99634706410703      -0.10580247641922      -1.02357362834686
S         5.21283026769214       2.44408719726333      -0.37927674839462
F         6.54334543416694      -0.22130832310035       0.51515362102600
F         5.95273985255593       3.21691049566479      -1.57587285368335
O         5.30622830926639      -1.34842053456985      -1.21757933397832
O         7.15934412032868       0.17697604378209      -1.79046736439559
O         6.12370712666517       2.48900420031527       0.72178288617214
O         3.95327289177607       3.11689446862305      -0.23051777916827
