47
C13H26F3NO3S optimized with ADF in AMS.
N         0.81109199790603      -0.76695717659054       0.18302655816582
C         2.03828462109961      -0.21430128380709      -0.50447101785932
C         1.38238657429861      -1.93107375690154       0.98175570266063
C         0.17735292560605       0.23869851079798       1.10966359175591
C        -0.17452340430252      -1.28126830814969      -0.86441860708892
C         2.82344178721512      -1.44695766684588      -0.95040302121114
C         2.42616736871136      -2.56013271347183       0.05711913719118
C        -0.34052046762379       1.49368308760385       0.43189765368756
C        -1.54398582973613      -1.63354788007315      -0.31481695774912
C        -0.99258745513607       2.40593753677964       1.47467664407368
C        -2.24939379582783      -2.66988908993148      -1.19284830636249
C        -1.54733337828013       3.68853279047638       0.86260687579800
C        -3.64652005203834      -2.97170555185037      -0.65530420644152
H         2.58530887130461       0.35823041927674       0.26031753189467
H         1.73593991282110       0.45955804495957      -1.31611701744137
H         0.57132272733970      -2.60653146759494       1.30850889330346
H         1.84749613343693      -1.47857409263369       1.87020972338551
H        -0.62534062125520      -0.28785440158313       1.64270577711815
H         0.95258305167658       0.49110337596737       1.85020089815181
H        -0.22647977880910      -0.50874752218438      -1.64741282699754
H         0.30012230162471      -2.17252758042173      -1.29934279767824
H         2.55361115292487      -1.72713134976639      -1.97965927110361
H         3.90184867648077      -1.23269161792181      -0.94549806661902
H         3.28359548436327      -2.91006537229990       0.64869498154744
H         2.01632215138288      -3.43997409897900      -0.45922066974501
H         0.47930979708330       2.03923631652100      -0.06785634787094
H        -1.08682933923982       1.24074309345956      -0.33928709008207
H        -1.44909753071393      -2.09541071671459       0.67969517556191
H        -2.16973868591639      -0.73018244997172      -0.22241909929406
H        -0.25036493202173       2.65359433106138       2.25379484097525
H        -1.80028019999045       1.84885131843181       1.98019995703113
H        -2.29701400142625      -2.32921927520948      -2.24399027427072
H        -1.64632113517466      -3.59464826832369      -1.17041721949422
H        -2.31645332469385       3.46453740728458       0.10714972516593
H        -0.75155468446236       4.27242988092814       0.37347239820282
H        -2.00762518895757       4.32452843982534       1.63249178546672
H        -4.28294080714674      -2.07233817300615      -0.68604754492365
H        -3.58423992190311      -3.31812502800153       0.38889095683856
H        -4.13820650357517      -3.75490378279541      -1.25035357788245
S        -1.67786929903782      -3.99755038781798       3.02156786300709
O        -1.07733190219483      -4.89681134002636       4.00571126376113
O        -3.12226449559522      -4.08919198110772       2.78781280786464
O        -0.87396594701319      -3.79930345466344       1.78037426572583
C        -1.50358160844179      -2.30577596202915       3.84729150890968
F        -0.18733905839975      -1.91900977450583       3.95776791361336
F        -2.03916724806450      -2.28366056732989       5.08828592275330
F        -2.12667727849724      -1.31249624626384       3.11683256350424
