23
C7H8F3NO3S optimized with DFTB in AMS.
N         0.97567314071131      -0.29610503410853      -0.54294635380612
C         1.39729078968198       0.97773185997388      -0.49219445230428
C         1.25071937303763      -1.15791064936935       0.44702681123279
C         0.43072857794929      -0.79616004683037      -1.80243431231219
C         2.02814364666766       1.46061391263885       0.63501237537931
C         1.88888731744486      -0.72553347980184       1.59279323853836
C         2.28277734998320       0.60104853139481       1.69492686275648
H         1.21210413450833       1.58931782035582      -1.36527375235224
H         0.94815253710443      -2.18643694991357       0.30336190585652
H         0.01081218608974      -1.78689561652065      -1.64893209399587
H        -0.33108243360824      -0.11017619541074      -2.16853468072936
H         1.25634639359210      -0.85139385698768      -2.51399652463427
H         2.35931087954653       2.49052395664624       0.65641373617673
H         2.10596647533042      -1.43739161801614       2.37837735086615
H         2.80510182395062       0.95309186712471       2.57549800085111
S         3.92313137103856      -1.07641408260970      -1.67357965823105
O         3.27939021212546       0.20016268484533      -1.98098206596718
O         4.80006828488766      -1.58343946458539      -2.69085850804212
O         3.00251764526301      -2.05374208839594      -1.09628219188866
C         5.03132738586660      -0.65084056016390      -0.22864115905935
F         4.75414517552678      -1.43179010713303       0.81923867071741
F         4.82129342314972       0.61135287201636       0.16665611296806
F         6.31365101075232      -0.78252124224917      -0.51916966932021
