38
C10H20F3NO3S optimized with ForceField in AMS.
N        -0.41286321703032       0.14784964822391      -0.06717221438201
C        -0.98124432495160      -0.89514202042298      -0.97553791057696
C        -1.47392559916260       0.38883587150797       0.95844499595406
C        -2.44611097230915      -1.08453413515455      -0.62863041973376
C        -2.52514282246086      -0.69464803725459       0.81991397272959
C         0.82359441587114      -0.36922559761461       0.60576943109702
C        -0.15429866597044       1.40285379171272      -0.84452826974837
C         2.01129683199988      -0.63283662532017      -0.35157240336989
C         0.45658060311259       2.54825455865288      -0.01725446442819
C         3.16227173605274      -1.31755454103901       0.37977675422429
H        -0.48950595811030      -1.88571004723070      -0.83914096461853
H        -0.88064777804276      -0.64037137868448      -2.05505864270714
H        -1.99489605309946       1.36188812216899       0.80389718563455
H        -1.08293194818246       0.40452718985057       2.00121759846508
H        -2.77810011426564      -2.13399460792238      -0.78642576358776
H        -3.07154480861065      -0.39766358475322      -1.24089144318991
H        -3.53928743849288      -0.32554810525076       1.08826497434835
H        -2.25976516391958      -1.56331904216878       1.46225353895161
H         0.58454380638913      -1.31690821875475       1.14259620878546
H         1.16393306268004       0.33886204092878       1.39373125305720
H         0.51751482219560       1.20371469682812      -1.70814403746404
H        -1.10521768376393       1.77389211004518      -1.29199488229808
H         1.70367727819253      -1.27685286815744      -1.20109543465004
H         2.39662038788847       0.32248701249135      -0.76335622586505
H        -0.12420988581741       2.74505005145021       0.90639672770877
H         1.50965209352729       2.32965428014075       0.25255064227390
H         0.45441847186157       3.47510724635369      -0.62480746384600
H         3.53005663194187      -0.67289808038613       1.20640891531293
H         2.83228808275526      -2.29427944945086       0.79311699979277
H         3.99838425416566      -1.49738577744128      -0.32874362516808
S         1.15257056889618       5.63389165732948      -3.16009855455979
O         2.51232840503990       6.33856471492394      -3.27612004710561
O         0.73667880187720       5.92094464878606      -1.70977931809751
O         1.53327580043490       4.14605929068174      -3.12743834414136
C        -0.07091176683271       6.09640196811182      -4.42133546659734
F         0.45123813409336       5.86341439648413      -5.67957308710570
F        -0.38120502038386       7.43718910291205      -4.29398363875760
F        -1.21660521876874       5.34195904692233      -4.25256986363686
