22
C8H8F3NO2 optimized with DFTB in AMS.
N        -0.86020690431348       0.62593931003884       0.19296334071737
C        -0.00298700448041       1.64710681575455       0.44576868439219
C        -0.41982939048256      -0.54944705849610      -0.32763677583639
C        -2.29976366087715       0.86479710953828       0.28040453197215
C         1.38539332888291       1.33905551834500       0.51378597084269
C         0.91203582620441      -0.82215162081981      -0.40783316880906
C         1.83790563760010       0.13825991514370       0.05501318734084
H        -0.40093693982965       2.46789242534424       1.03138623099813
H        -1.18420431543004      -1.25410283355742      -0.63099679406040
H        -2.68509264054772       0.43931271197734       1.20884503309493
H        -2.48351146974432       1.93677693614041       0.25997538474570
H        -2.78767696962972       0.40386191081914      -0.57632196968149
H         2.05939517119680       2.11216488628462       0.85814522647500
H         1.25001482845405      -1.76972369244251      -0.80447617822095
H         2.89561905249215      -0.09651555761808       0.06139036460065
C        -0.71412359180240       2.42112288139058      -2.15928298441108
O        -1.52856180058125       1.54029873983659      -2.32803412077731
O        -0.06044240709947       2.76083954319150      -1.13827087724698
C        -0.34761251655146       3.33897483714988      -3.41236249609784
F        -0.31284124911576       4.63611479985911      -3.08787691451611
F        -1.22808813501154       3.19301716281423      -4.40399152469765
F         0.86160435846650       3.01012368480590      -3.89188170612441
