37
C11H20F3NO2 optimized with ADF in AMS.
N         0.52937311453705       1.06114594086511       0.12792467384638
C        -0.87551836585854       0.86825727291692      -0.42247768321453
C         0.23954798652363       1.81500898723853       1.41955303880277
C        -1.72456988345801       0.49080730582684       0.78912023574218
C        -0.99537326124902       1.12580082514774       2.00427760288300
C         1.17950726997855      -0.25818567573113       0.46504996858847
C         1.34835006180986       1.88560236144889      -0.84499203754880
C         1.57661439072170      -1.12168399642847      -0.72043484132216
C         2.74164384142073       2.21299177178734      -0.34725829864776
C         2.05344546132542      -2.49003080591949      -0.23181590547634
H        -0.85116354897215       0.13147579185186      -1.23538816058689
H        -1.15994558578909       1.86783011208277      -0.79400856415258
H        -0.01772830279809       2.83970009832423       1.09235981245902
H         1.13156123155189       1.78792798933467       2.05773878067619
H        -1.81941753001918      -0.60043111365569       0.90112852848680
H        -2.73475034678377       0.90476899710908       0.66536824578417
H        -1.62217200015775       1.87955982835469       2.49962465573691
H        -0.72659917940902       0.36303952115944       2.75113017420408
H         0.46407957729354      -0.79651139130713       1.10273560591370
H         2.05932984420914      -0.02407920009492       1.08323311293490
H         1.37794761468115       1.31085167891940      -1.78247727703732
H         0.75358518530062       2.80193783127436      -1.00522118071860
H         0.72183911526633      -1.25519422714850      -1.40341091488168
H         2.38040797303019      -0.63664652869378      -1.29707814304903
H         2.71052097213177       2.81548545882708       0.57160662666842
H         3.36753068388003       1.32367692640323      -0.17700178531679
H         3.23871880339429       2.82265940499422      -1.11644813160823
H         2.91024350467866      -2.39233333960170       0.45350665755418
H         1.25126571189069      -3.02129095005173       0.30385200730091
H         2.36912155932966      -3.11719459647493      -1.07726063424681
C        -1.75793008428701       4.76229281829785      -0.25568401588775
O        -2.09036907419315       5.69430398652818      -0.98983982167439
O        -0.84761319955430       3.87935044485258      -0.36910310050153
C        -2.60072806018922       4.57129334114387       1.06112607844508
F        -3.35737703476203       3.40864558790422       0.99694593870253
F        -3.46471997471513       5.57889080851351       1.32747380894932
F        -1.80208646265945       4.43179971320087       2.18286713199220
