38
C8H20F2N2O4S2 optimized with DFTB in AMS.
N         0.60231691917174       0.08337378236312      -0.29744983912202
C         0.49318202350825      -0.56377172750828       1.05956736369398
C        -0.70061581226617       0.01497242967548      -1.04521092320236
C         1.64787834269872      -0.64580860099594      -1.10243588086268
C         0.97735642557523       1.53290845310129      -0.09942621170217
C         0.16736901740622      -2.04883689510838       1.04363546650616
C        -1.91682274302250       0.53666850347385      -0.29351657360153
C         1.96875963125590      -0.03551662151032      -2.45602495753149
C         2.37733475052617       1.78124208799169       0.44350429070993
H         1.45570227858586      -0.42314700500205       1.55096143595188
H        -0.26420210306622      -0.01024653380008       1.61856880518114
H        -0.56820681589726       0.59403708210939      -1.96154502346934
H        -0.85918036425431      -1.03011171805572      -1.32048482725186
H         2.54695456932778      -0.67993780144851      -0.49025439092692
H         1.28718715313217      -1.66602411124965      -1.24168831998868
H         0.86231130685530       2.02526681941492      -1.06818000849926
H         0.23992245586454       1.95368423090830       0.58848067887482
H         0.00620946892912      -2.35346427721136       2.07767261414100
H        -0.73416303632534      -2.27347217246165       0.47587235311133
H         0.99830031681663      -2.63122680651350       0.64981104309618
H        -2.76206039498892       0.50804586269519      -0.98127231377281
H        -2.16066175016390      -0.08405583525212       0.56640415247622
H        -1.78206025700858       1.56515674207353       0.03594182842695
H         2.76161615487550      -0.64372448226642      -2.89030456303660
H         1.11396585627920      -0.04717176437823      -3.13115533350757
H         2.34614222599547       0.98066258749722      -2.36820251775535
H         2.49037855002364       2.85946365025059       0.55605737397239
H         2.52959190495467       1.31857175668870       1.41548038615732
H         3.15039524208833       1.42613132911656      -0.23293160228173
N         5.65943379469106      -1.66617239386839       0.64686547957785
S         4.28415079751438      -1.99738408304068       1.34048112829169
S         5.69594810754462      -0.37436701651696      -0.28480735082446
F         3.35932343389324      -2.65565448426638       0.13183976381594
F         5.52372954649400       0.86230892377908       0.75547556706552
O         4.46014193383813      -3.07973907641840       2.24486693113361
O         3.47155374273723      -0.87963447456566       1.75114445270851
O         4.57953528857673      -0.19712232523213      -1.17640175602496
O         7.01012909163336      -0.23631362596809      -0.80577707563059
