45
C11H24F2N2O4S2 optimized with ForceField in AMS.
N         2.00751362317066       0.42953952109566       0.08916046396483
C         2.24078380357273      -0.88867990969077       0.73944376724335
C         3.12651147623704       0.60096939240289      -0.88727625051530
C         0.70212756602445       0.45666068898707      -0.64060733776323
C         3.68103897576184      -1.28236841204035       0.48187937366324
C         3.99503653576586      -0.64722380461457      -0.84578362421947
C         2.06589115427491       1.51821107893020       1.09925990136925
C        -0.54504702437565       0.27381672989133       0.25695125590413
C        -1.80838479592713       0.11021923215823      -0.59891445378343
C        -3.05361369483620      -0.08944306849926       0.27403900533047
C        -4.31396208147473      -0.21021340069907      -0.59082090467363
C        -5.56043403684176      -0.40554328875150       0.26756876280294
H         1.59771488896193      -1.68444970945488       0.29700030989774
H         2.03679462309629      -0.87694836732468       1.83456234271641
H         3.77117639657450       1.47925836072539      -0.64874193952272
H         2.77578977875276       0.76334680283338      -1.93256569997827
H         0.69653866084550      -0.34361534225380      -1.41730100895514
H         0.59362390134149       1.42370556567915      -1.18384013126828
H         3.80882525860460      -2.38622497451830       0.44596436931430
H         4.33598308498598      -0.85308947271296       1.27088061062623
H         5.07639080114759      -0.40473790829031      -0.93429496137572
H         3.69950379580814      -1.33686845705072      -1.66772714067809
H         1.33099405779779       1.36018548095672       1.91711321629774
H         3.06913632438341       1.56281187342360       1.57963996799985
H         1.86113368056450       2.50580614260255       0.62837141160072
H        -0.43146869033561      -0.61867569855148       0.90771780624918
H        -0.67758576243375       1.16818402584395       0.90231978995060
H        -1.68990919294427      -0.76985998042580      -1.26937204994298
H        -1.94131738674820       1.01773099665479      -1.22895582673451
H        -3.16249889420072       0.77517251169772       0.96578354848383
H        -2.93201256857842      -1.01462950742954       0.88025279436693
H        -4.44030572502824       0.71148363679260      -1.20000765524265
H        -4.21420125557812      -1.07672322848234      -1.28057940861363
H        -5.69745615136459       0.45856652155540       0.95200719395734
H        -6.45259918018806      -0.48310847627007      -0.38888547843993
H        -5.47625365442233      -1.33852708655076       0.86442806918685
N         8.30020167440402      -0.37123855507892      -0.34746979713671
S         8.16382890589283      -0.81070773913322       1.22267625989901
S         8.76465591115946       1.14071863166127      -0.76649234639479
F         6.86667709894365      -0.00924312141529       1.91273390285117
F        10.37850729664463       1.35416850849356      -0.37564181975696
O         7.94130137121262      -2.29335722071161       1.31241047532202
O         9.41509443551112      -0.43948084924899       1.96775780709568
O         7.94524039459009       2.15342163037806      -0.01725377945702
O         8.57959232364740       1.33198337273570      -2.24463922524137
