50
C14H28F3NO3S optimized with ADF in AMS.
N        -0.43621355223179       0.01399870242978      -0.53031894164354
C        -0.96903931318063       0.15838178068817      -1.95325693960860
C        -1.06797020397416      -1.20244213442647       0.11405656468771
C         1.06618786839382      -0.19384249015681      -0.64195145898643
C        -0.74893475616816       1.24838882350050       0.29812404378408
C        -2.48442356458436       0.18989547857815      -2.02073098839168
C        -2.58986561031272      -1.19015051424491       0.06919714052293
C        -3.10339609340474      -1.04318071056243      -1.36317350872519
C         1.81456619286978      -0.39389616950282       0.66184617505658
C         0.01036149306335       2.49505627407460      -0.11117457998296
C         3.31142608863327      -0.50301057848713       0.34907629880527
C         4.17014746219152      -0.65245944312008       1.60107040448799
C         5.66045014500468      -0.74019989385298       1.27718992924014
C         6.53527997204999      -0.90385872452357       2.51648254412098
H        -0.56564989098258      -0.70510962293277      -2.50443460946451
H        -0.49318410410812       1.04549926204079      -2.40054153965539
H        -0.69477683449441      -1.25385478976887       1.14602468127737
H        -0.67385839517945      -2.06772329429859      -0.44277349432304
H         1.46701976864915       0.67568286076065      -1.17917737812586
H         1.19980435784931      -1.05259745620238      -1.31715197715402
H        -1.83042336026695       1.40629985458663       0.21076244239377
H        -0.53614128654420       0.97506795938623       1.34292104671254
H        -2.74737033650168       0.24285120724592      -3.09007680573803
H        -2.88559397215786       1.11368244705651      -1.56746565475587
H        -2.98844486116741      -0.38425436014446       0.70887249102633
H        -2.93575633412103      -2.13632037012397       0.51925207281709
H        -4.20379328269536      -0.98457502356772      -1.37089867309225
H        -2.82218127455516      -1.94110412572194      -1.94355754948844
H         1.65787713590217       0.45886458729006       1.34590001773956
H         1.48552390329293      -1.30573516625308       1.18987073931811
H         1.07675848934465       2.43767605115213       0.14491432146346
H        -0.06038179288721       2.70928490296480      -1.18768007394670
H        -0.42327790296310       3.34358177934339       0.44001895635291
H         3.62466458001415       0.38425841029595      -0.22751086308426
H         3.48040876101630      -1.36509584786928      -0.32084438943101
H         3.86294306544946      -1.55648676104386       2.16128282719170
H         3.99368470494723       0.20793525110723       2.27465259248028
H         5.82854546310635      -1.58805864860884       0.58848464818506
H         5.95989198251847       0.16782331746397       0.72438380611492
H         6.27820902198293      -1.82547857647187       3.06375687763125
H         7.60102360222115      -0.95800992186729       2.24782949568268
H         6.40484175227105      -0.05601156349763       3.20860453465241
S         2.00343837919405       1.26262573892179      -3.68306209356870
O         3.08168143720069       1.42668173338386      -2.68789055056019
O         0.86102151734631       2.19289347192157      -3.49762544409499
O         1.61468552529017      -0.13219175681212      -3.96694235305598
C         2.77813872436524       1.84681216878731      -5.29086800393580
F         3.81634609312094       1.04316806974908      -5.64584324665779
F         3.25153682013034       3.11748771311269      -5.18401472785591
F         1.86734974956161       1.82559364382012      -6.30204032461799
