38
C10H20F3NO3S optimized with ADF in AMS.
N         0.41986095890270       0.09819004032297       0.11875853962603
C        -0.64962342364862       0.73204681511965      -0.75095097671023
C         0.42777544547170      -1.40827041399747      -0.12552661227976
C         1.76041197531481       0.68467945616832      -0.30920130006738
C        -2.02580388349141       0.11057885178974      -0.56604690338900
C        -0.92644638821644      -2.04720225847940       0.09683253207472
C        -1.99259238242229      -1.40262483410922      -0.78642524547147
C         0.17210988154270       0.40528068716961       1.55816593642533
C         2.95879880237190       0.26472571735253       0.52296331356501
C         4.23723897633033       0.78717562536356      -0.13667319415007
H        -0.30176124280806       0.58955903385415      -1.78632732453972
H        -0.64730304984177       1.81022577175847      -0.52595185686412
H         1.21826822181209      -1.85038563437451       0.49613876176900
H         0.74450395210570      -1.54941549886331      -1.16868521399524
H         1.62619940249116       1.78018202707287      -0.29285504206545
H         1.89683295849337       0.36273894297866      -1.35201536279950
H        -2.70063386168174       0.60273378562405      -1.28697224844565
H        -2.42611554432976       0.34854065472433       0.43429985636908
H        -1.22047096413867      -2.01088181720814       1.16071254441055
H        -0.78530111623205      -3.11040032695512      -0.15694567790625
H        -2.98552034761838      -1.83610664658525      -0.58870643674126
H        -1.75330763775428      -1.61400349307245      -1.84463310900662
H         0.90249113768602      -0.14240301519982       2.16301352238098
H         0.28321617890391       1.48658871496078       1.71375987302175
H        -0.83844258089278       0.08996133858737       1.83264016331841
H         2.88230727361597       0.67027558208516       1.54541562848839
H         3.02208062567230      -0.83476769909093       0.57721034509610
H         4.37338605456393       0.32831590376012      -1.12663046214698
H         4.22244877654151       1.88283621087402      -0.25193110040399
H         5.11047439584264       0.51874485950683       0.47463424208339
S         2.88013393011230      -3.75953390380997      -0.95224385603927
O         3.63599895259958      -5.00796054332030      -1.00417470312776
O         3.08369270168835      -2.92895445583492       0.26270260884390
O         1.47560637544808      -3.80609853643319      -1.41177508133667
C         3.69729790468548      -2.70897900039099      -2.28415584038713
F         3.73884271602424      -3.34336935124069      -3.48022281165347
F         4.96801772613727      -2.35640679410735      -1.94981931349876
F         3.00230584041822      -1.52442296570011      -2.48649469844688
