42
C10H12F18NP optimized with DFTB in AMS.
N        -1.86316661210764      -1.30426744386081      -1.04583436165930
C        -2.05641977313091      -0.96296777682306       0.38915499408959
C        -0.98096014205757      -0.29561904687088      -1.68760061346509
C        -3.18450352796629      -1.30527354455715      -1.73179081383878
C        -1.23228599179000      -2.64965143407577      -1.15216703591039
H        -1.09355480467534      -0.99758967151259       0.89528859851232
H        -2.48111956207543       0.03656693683062       0.46122257918746
H        -2.73698037558057      -1.68745338289340       0.83073809914977
H        -0.83288084234971      -0.57293033291498      -2.72959573192012
H        -1.45615911399767       0.68180187677226      -1.62770641148177
H        -0.02429389413876      -0.27617426500039      -1.16873059530758
H        -3.03797269170309      -1.54197316671214      -2.78284747686410
H        -3.81987301834348      -2.05509654739844      -1.26892290911930
H        -3.63702287185736      -0.32083045002624      -1.62952130359396
H        -1.22109942724503      -2.95333863436629      -2.19673187931652
H        -0.21790002545654      -2.59576113977209      -0.76158385174170
H        -1.81627795079814      -3.35813259217148      -0.57108727558573
P        -5.78063328927959      -4.76973065276291      -1.05621631857994
F        -6.97770600518272      -4.54878012609162       0.06865891204250
F        -5.87067267905167      -6.42252973965150      -0.89861933493413
F        -5.60715570561922      -3.07103275754569      -1.22095535556363
C        -7.20881418727030      -4.79564326128325      -2.38618556542339
C        -4.48966144555728      -4.69412656955467       0.48141761512826
C        -4.27653414056473      -4.97458577641163      -2.42725846505900
C        -8.08664655913325      -3.52640764017191      -2.58024821347625
C        -3.40386888987547      -5.80865256576348       0.69495231508853
C        -4.13266134730670      -4.10467345360568      -3.72026328686717
F        -8.04959253790511      -5.79560519143900      -2.09037172196629
F        -6.66682026930091      -5.07082369024235      -3.59255729487970
F        -5.17305762945793      -4.63293826313973       1.62788079600281
F        -3.78799658235416      -3.51719715367699       0.42312854907392
F        -4.15727849015675      -6.24747830099489      -2.82091507004988
F        -3.14016622759522      -4.68081552997504      -1.72041956984433
F        -9.13138443926541      -3.81145144108111      -3.35935017819154
F        -7.39857551741253      -2.55006855921735      -3.17181516258393
F        -8.55329244160669      -3.06123909707657      -1.42725566746509
F        -3.55627390375617      -6.38922056425114       1.88010349494019
F        -3.42072588712742      -6.75759442884252      -0.22770232257671
F        -2.17565464924261      -5.25599932744107       0.67918835390656
F        -4.40818212905420      -4.78157885391470      -4.81860307562223
F        -2.85901784339773      -3.65762362142511      -3.83259338098040
F        -4.89245668235265      -3.00911852148731      -3.69370003515392
