41
C11H22F3NO3S optimized with ADF in AMS.
N         0.63974532132339       0.16078346027289      -0.06225200470721
C         0.06200055611170       0.72826979982550      -1.35246098279695
C         0.35435481246466      -1.33619418782541      -0.01417896634164
C         2.14367925640724       0.37028422144570      -0.15146160527315
C        -1.41452608347975       0.42514470144579      -1.53251553111367
C        -1.11571226000894      -1.67192998839234      -0.21074153854673
C         0.05298276947396       0.81605975807787       1.16758022769262
C        -1.64995827059396      -1.08416402598280      -1.51423866467341
C         2.96431852365317      -0.16757666595992       1.00440130644624
C         0.34099520387347       2.29706273050537       1.31718288463350
C         4.44259550232937       0.06606383750004       0.68584228295643
H         0.64681296996953       0.24044474795399      -2.15091134296488
H         0.27698400080455       1.80563875530782      -1.35025524019201
H         0.72044707177321      -1.69281067907614       0.95759777695469
H         0.96986488445429      -1.77419100715904      -0.81387014575244
H         2.29721543515633       1.45115567806484      -0.28777848431861
H         2.44943494065166      -0.14978473793072      -1.06911661025423
H        -1.71140633338304       0.85387259539791      -2.50361097268861
H        -2.03178536433426       0.92877552837027      -0.76679595741392
H        -1.72457847166743      -1.33301523438395       0.64589598375714
H        -1.18461081536901      -2.77231284628165      -0.22372496258058
H        -1.02882982129691       0.63934409847272       1.13052846447775
H         0.45143829426806       0.25490673656083       2.02504286208214
H        -2.72026402885171      -1.31331441419358      -1.63250294135409
H        -1.10673123110810      -1.53839041393835      -2.36087474256395
H         2.69700433175443       0.31162986024502       1.96237218914131
H         2.80397707819213      -1.25275373622034       1.09861481434470
H        -0.16390571688062       2.64435742565176       2.23120620466058
H         1.41287083184572       2.50698162702428       1.43116707091766
H        -0.05263608493336       2.89096948744714       0.48062430577668
H         5.07827253597389      -0.32481736460282       1.49228973974847
H         4.70226124826906      -0.45739073195773      -0.24627286585023
H         4.66278159458971       1.13845193268873       0.56226716581156
S         2.82416135700792      -2.13416577946691      -2.96017666435923
O         3.28812043295044      -2.17845039984949      -1.55368361170732
O         1.53688690561140      -1.40363506499481      -3.11625531643216
O         2.95944180085047      -3.36444692215770      -3.73402036655496
C         4.04436718030104      -0.95676981779000      -3.75849587735302
F         5.31530735834717      -1.42236961217790      -3.66401798672276
F         4.00983537678612       0.27176112934224      -3.14136163462130
F         3.76004100281301      -0.76006612545914      -5.06977136256443
