43
C13H24F3NO2 optimized with ForceField in AMS.
N        -0.83268983592855      -0.21332273600925       0.02665248870775
C        -1.16003619789812      -1.25854195267504      -0.99225709181573
C        -1.96859064527843      -0.25055378226615       0.99878778751576
C         0.44113241454318      -0.56403230756466       0.73675091046825
C        -2.58075788911531      -1.73341259201666      -0.75159023654012
C        -2.79998959582591      -1.48577915642150       0.71372748248913
C        -0.76803416306654       1.12930084530549      -0.63793180794305
C         1.70786265537135      -0.52689486063825      -0.15290602432828
C        -0.40956074587304       2.29781252570207       0.31139431400587
C         2.93445427841387      -1.01037578264056       0.63074270391825
C        -0.50782700641830       3.63777247042224      -0.41201939223578
C         4.18967531887951      -1.00081335330313      -0.23615557364022
H        -1.05912033687385      -0.89756367681194      -2.04131493903316
H        -0.50218797479471      -2.15356607090767      -0.90612630242008
H        -1.63846909457481      -0.25610378912583       2.06262622438117
H        -2.64732266788506       0.62647108421489       0.88804632939641
H         0.35129627609957      -1.58456407367787       1.17669473737163
H         0.60421350487906       0.11439029937382       1.60300952674279
H        -3.29095046858406      -1.12000626735337      -1.34921158362157
H        -2.70916521283606      -2.80842859121029      -1.00511638159338
H        -2.41488593615308      -2.34544941876598       1.30545657167157
H        -3.87630212621724      -1.32481288952007       0.94226689644604
H        -0.03344081425553       1.11743461244418      -1.47296982836696
H        -1.74958982145964       1.35382717470994      -1.11707619210697
H         1.57366189223344      -1.16925940383629      -1.04824649772075
H         1.90833844766322       0.50949221781599      -0.49464529466438
H        -1.09080475115666       2.32099948770202       1.18710485847352
H         0.63010299419596       2.19326654746034       0.68409335290292
H         3.10019573395120      -0.35030119683888       1.50964155616501
H         2.76350551702960      -2.04315631521882       0.99903441707751
H         0.19988993071635       3.66471881120080      -1.26781846855938
H        -1.54119080113721       3.80222706685496      -0.78442561732889
H        -0.24867186043428       4.45936951920899       0.28854193261520
H         5.04946409828912      -1.38186768302145       0.35429203936260
H         4.05252126981386      -1.65414882910302      -1.12407847141097
H         4.41884084223848       0.03304321935390      -0.57150902253372
C         2.15963436212651      -6.41051404227999       0.50750246313805
O         2.13639740134262      -6.82209396334984       1.65674486263823
O         2.48658374900934      -7.16327083750722      -0.39577559458182
C         1.79042045023251      -4.98945522261736       0.19947108453804
F         2.85459616178744      -4.36111221825877      -0.42108993889073
F         1.47588430112119      -4.30714302222694       1.36184816525108
F         0.69534586162902      -4.96805866910286      -0.64435003084085
