50
C14H15F18N2P optimized with DFTB in AMS.
N        -0.74586222349463      -0.79052096338628      -0.91698748607388
N         1.39660394929843      -0.70976996691675      -0.70514420218129
C        -2.17461736756271      -0.58619045122826      -0.68641595516723
C        -2.74368867001627       0.52252662056306      -1.57879489056763
C         0.24544751555425      -0.28505024804577      -0.18318416459359
C        -0.21572458182373      -1.51949112499007      -1.94506116407679
C         2.73130440449572      -0.41826798658012      -0.18446176447246
C         1.13546537187789      -1.46703352267048      -1.81270662096484
C        -2.22035324184834       1.90151873915259      -1.19196452357368
C         3.36747635459784       0.75635561586971      -0.91740283955644
H        -2.30962389111452      -0.34283341268043       0.37155218813974
H        -2.67407855964418      -1.53500539857487      -0.89992396907868
H        -2.49474798194154       0.30830998410135      -2.61965603011865
H        -3.83199129476857       0.49388994109913      -1.47423119806168
H         0.13527998403720       0.32750157471855       0.69487037408325
H        -0.83110804777168      -1.99153747993947      -2.69007704560313
H         2.63184403605261      -0.20568730149510       0.88369712506249
H         3.33277152837801      -1.32270009481685      -0.31197628673131
H         1.91711199045988      -1.88358031982093      -2.42274279257791
H        -1.13390115040891       1.92673599969815      -1.25411837109246
H        -2.52141454121282       2.15827875042626      -0.17507117370337
H        -2.62005974368961       2.64792013137572      -1.87687326366984
H         3.39237186317142       0.56777332293266      -1.98856808320245
H         4.38597331518294       0.88760622260039      -0.55483584835232
H         2.80517019629018       1.66941240939534      -0.73451573769274
P         0.67147976597703       1.22350239778079      -4.55778278414604
F         1.91976799846512       0.49013788492425      -3.67526731806904
F        -0.47594150428197       0.63333979615782      -3.43829783224031
F         1.79585596549349       1.81879422794057      -5.63311422496377
C         0.96306459843387       2.70295210597262      -3.29079980230718
C         0.53771063060462      -0.53673963224977      -5.50649443470388
C        -0.77835608581647       2.01990878364460      -5.67743517967500
C         2.25699625100769       3.55262724626790      -3.38134603671665
C        -0.82260165754246      -1.22456473470781      -5.84724310498268
C        -1.08811353365767       3.53476641773310      -5.85475395420819
F         0.98828898131245       2.17405772358813      -2.03742291874282
F        -0.07973217573439       3.55159156411575      -3.30481586128547
F         1.11434973885197      -1.46774801444800      -4.69814994678766
F         1.25268900907541      -0.51475402103520      -6.63729552548059
F        -1.94920539332136       1.44049539263473      -5.33790146026439
F        -0.46108767484807       1.57802845642909      -6.91336586256608
F         2.30966230656655       4.40187340035682      -2.34829611254456
F         2.32374600041421       4.26066634123686      -4.49749866410890
F         3.33695336912307       2.77340753804260      -3.30814600639690
F        -0.57906054782031      -2.49579075644504      -6.18556361264283
F        -1.62006606660795      -1.26263118506942      -4.76766044551224
F        -1.49514562617645      -0.67318259330828      -6.84086584887350
F        -1.94001059708046       3.96253775142928      -4.92612381515919
F        -1.64834842135361       3.75194138836880      -7.04343717264525
F         0.01982535221687       4.26896356635231      -5.78845494854994
