52
C16H33NO2 optimized with ADF in AMS.
N        -0.64970875173369       1.62179247229438       0.14962878352045
C        -0.11591402802683       2.61534458457266       1.15151989346972
C        -1.43318973781828       2.49280955326330      -0.81844159992113
C         0.47230447398350       0.95351224539214      -0.63002020055012
C        -1.54820648058985       0.61626495124475       0.83079150636733
C         0.28741924043024       3.83525416361061       0.32442044045453
C        -0.59453042179079       3.76452991905514      -0.95259944271113
C         1.35029882585510       0.00685834619354       0.16348986920157
C        -2.17047634316633      -0.39097033205868      -0.11278593942637
C         2.33128585625272      -0.66540534603104      -0.80437648504639
C        -3.17166111027537      -1.28024804803537       0.62017796360826
C         3.20059485842911      -1.71875004761985      -0.12396690195457
C        -3.78597658824983      -2.31689865588966      -0.32009849530736
C         4.12598719229151      -2.43108778386448      -1.10756979341083
C        -4.81584393974719      -3.20547278210440       0.36944263930538
H         0.69548601588257       2.15342734835152       1.72804955409709
H        -0.94959598675904       2.84802534494044       1.83147994292521
H        -2.39849397640565       2.69651808113187      -0.32845540878136
H        -1.58203128217913       1.91007193639198      -1.75799352744057
H         1.06588304700444       1.77084208335932      -1.06522869864448
H        -0.00678456221567       0.38178023571703      -1.45739250291803
H        -2.32366759200902       1.21777671489088       1.33576919622995
H        -0.94340851070668       0.12766388268466       1.61138928504998
H         1.35679709122637       3.80014456918013       0.07045203416344
H         0.12219946190463       4.75669011081430       0.90181358147687
H        -1.25018313107711       4.64134060529787      -1.04931971274272
H         0.02680718891062       3.72522620516599      -1.85884119353544
H         0.73553746084479      -0.78632113781949       0.62255247643582
H         1.90673909325271       0.51144906230844       0.97620604960547
H        -1.39729382825146      -1.00486972010631      -0.60447483336498
H        -2.66954202435866       0.13048045673535      -0.94746733511805
H         2.97801919105281       0.10216410057012      -1.27083239736689
H         1.74147598573333      -1.12379207517805      -1.61832612405970
H        -3.97886575553990      -0.66281634793760       1.06156765745800
H        -2.67803125188384      -1.79981308887329       1.46510003348864
H         2.54481331048172      -2.46241111352849       0.36577935228096
H         3.79918658763784      -1.25032199341629       0.67975030484332
H        -2.97730921213675      -2.93337532389694      -0.75034184483215
H        -4.25260239434334      -1.79194199498748      -1.17250287881376
H         4.74392116670780      -3.18726432770843      -0.60125401515831
H         3.54161615720440      -2.93507995217600      -1.89363716342962
H         4.80291796499045      -1.71600415961783      -1.60262294971047
H        -5.23780809469230      -3.94162200938696      -0.33088438940034
H        -4.36477836294201      -3.75787593985514       1.21001909342207
H        -5.64898441108510      -2.60614754741251       0.77174805395760
C        -1.47195550656137      -1.06271903307728      -4.78938557696698
C        -1.17394828953250      -0.42009891918702      -3.43005645872479
O        -1.73181272264371       0.69998192200809      -3.20058861579101
O        -0.41244311706101      -1.06447677217810      -2.64229592611488
H        -2.49905303217203      -1.46117112047388      -4.77977324008497
H        -1.42307361542617      -0.30683268446862      -5.58678606746500
H        -0.77582351579603      -1.88571030448532      -4.99976464996928
