41
C11H9F18N2P optimized with DFTB in AMS.
N         2.72651203888242       0.47741253179178      -1.16724251883888
N         1.35244892886989       0.60075774455007       0.48300774098733
C         2.31059882816803      -0.14340069398337      -0.06392861660213
C         2.03964369547548       1.64872314313291      -1.31160688331366
C         1.17051595455312       1.72782458638830      -0.26975560042873
C         3.80673343657248       0.01660315594072      -2.02619478666425
C         0.65324078963787       0.30692778515394       1.72211795271141
H         2.69940012514880      -1.06770543121393       0.32805138516083
H         2.23733748879914       2.33245542503198      -2.11795647053469
H         0.46449542395040       2.49103240866962       0.00577635320596
H         3.51727044902207      -0.91919009747982      -2.50502297675484
H         4.00007955778015       0.77850537528411      -2.77774492561807
H         4.69952531593772      -0.13243518077632      -1.41997755033107
H         0.86999407977280       1.09564222596511       2.44145646118338
H        -0.41928351755932       0.26452972548604       1.53186970205163
H         1.00339528178675      -0.64783304235707       2.10827801075348
P         4.91851003601786       2.95540446551543       1.74405418819278
F         4.63326327879666       4.56226377947402       1.43709182936921
F         6.44558139266668       3.24131928275280       2.34027454777919
F         3.35486409113443       2.57097313458137       1.15485383665091
C         4.18414054185011       3.35831658887237       3.51649170266524
C         5.67794069364291       2.88709563406688      -0.11107928144185
C         5.15828128302745       0.94446909228018       1.98081769149951
C         2.68713343181754       3.75755441582438       3.63086350399650
C         6.97319037073242       2.09272275419765      -0.47687539704785
C         4.39398253594377       0.00380121476421       2.95433798884293
F         4.87823268568145       4.38569380791874       4.02652042969977
F         4.36413296154295       2.31132526652161       4.34805576181583
F         5.95532202519309       4.14649150447301      -0.47628949158129
F         4.73768873348536       2.44089392679766      -0.98820200572756
F         6.45769669434338       0.64005509306477       2.11187179211807
F         4.77464460758502       0.46677962252530       0.75363596380948
F         2.40901034360165       4.17709909805559       4.86359757605514
F         1.88331659831167       2.71011516929560       3.38063353414091
F         2.35492634071729       4.72336645353539       2.78371573466522
F         7.48938720006972       2.60203545632148      -1.59933123238729
F         7.90527059100390       2.14920143465890       0.45990235083334
F         6.70900184512284       0.80503180544977      -0.73173464135282
F         4.97332046101168      -0.11829235347575       4.13239617167025
F         4.30383066004498      -1.22557148924868       2.41505696672559
F         3.12844598505744       0.41401150379328       3.13042318524111
