41
C11H24BF4N optimized with DFTB in AMS.
N         0.19937269381026       0.54304747710190      -0.23635262851261
C        -0.35709738366994       1.30619082784675       0.93761002032676
C        -0.94585697150679       0.07729277084091      -1.08326999316121
C         1.04144306958053      -0.59950181372731       0.25361504245579
C         1.01196380678993       1.49131487294584      -1.08649055088951
C        -1.37164738668187       0.51139119428098       1.74809454597620
C        -1.92904456281300      -0.79337518315935      -0.30974979344488
C        -2.50549953691407      -0.02007793234317       0.87534257430838
C         1.55086574616551      -1.55270177547870      -0.82272255847867
C         2.25799707609809       2.10374131868078      -0.43095588548294
C         2.54201218356818      -2.52022416219870      -0.17274893779103
C         3.56642750132875       1.42085168173549      -0.82670537112778
H         0.47733367640612       1.58292617397548       1.58361798296996
H        -0.82068896651449       2.21013754838774       0.53155021123247
H        -1.45629236477713       0.97304191109566      -1.44967868025137
H        -0.53607386254027      -0.46188855937472      -1.93930128768743
H         1.88174728852258      -0.15452969831223       0.78456854011345
H         0.45471498934529      -1.15409104878926       0.98497089851041
H         1.28599842236626       0.94703998174775      -1.99432198660996
H         0.32223653228816       2.29000996653830      -1.37287146158604
H        -0.87369401481909      -0.30579374050691       2.27407125907783
H        -1.77292533721621       1.18872398799209       2.50618088641788
H        -2.72934910202576      -1.07907469800660      -0.99788745422152
H        -1.44253215420903      -1.70904777494950       0.03480654773802
H        -3.15117971985371      -0.67598374347995       1.46382712868284
H        -3.11277287026762       0.81274038921678       0.50452930279165
H         0.72781303893197      -2.12230743893715      -1.26531954860279
H         2.05528868118600      -1.00716375703625      -1.62461647363919
H         2.29773452159691       3.14848016903471      -0.75474462262409
H         2.17685222022483       2.10410420766429       0.65641240492038
H         2.94782895054325      -3.19639407896173      -0.92447019323530
H         2.04666012153315      -3.10926443367235       0.59916722535009
H         3.36211826888869      -1.96829722993903       0.28658641339470
H         4.39941889891967       2.04060748136829      -0.49570491185945
H         3.63420220832559       1.29433865829330      -1.90856247969264
H         3.66362600855148       0.44982317740938      -0.34531865290492
B         2.42488247523454       0.67120674499783       3.05186483528924
F         2.01898052384759       1.99028538475652       2.72044708430969
F         1.25813239872968      -0.14165962058113       2.97760718471412
F         3.00051085378873       0.61020966582374       4.28483284028977
F         3.30616637233724       0.23499091791954       2.03258513313371
