30
C8H12F2N2O4S2 optimized with DFTB in AMS.
N        -0.08241704814975      -0.45069768515205      -0.69306332965882
C         1.36901551002926      -0.66136902938374      -0.74674590799476
C         1.93842741644301      -0.86607897416679       0.65928727717461
C         3.40528462560942      -1.27707082960668       0.57015314974814
C        -0.60510192031372       0.74365412416429      -1.00926211455407
C        -0.86893054815424      -1.48800808835865      -0.37281540046319
C        -1.97013781464167       0.93303816680881      -1.00596073089696
C        -2.24299694272432      -1.34797328394888      -0.35263781322678
C        -2.80936798930525      -0.12612799523838      -0.67720347312668
H         1.54448405200317      -1.54947908280555      -1.35837282819471
H         1.82414814574610       0.20504979653626      -1.23147951488074
H         1.37307270955326      -1.65373043952721       1.16381022473965
H         1.83095592338148       0.05847458147284       1.23580988496923
H         3.49383345764993      -2.22339553634776       0.03712438844916
H         3.81267710743462      -1.40008382725183       1.57302798962173
H         3.98830858528214      -0.51939353198885       0.04544990439279
H         0.08833620544601       1.53307854226540      -1.27312296444702
H        -0.38196016699808      -2.42832972629911      -0.15217804803805
H        -2.37097398140650       1.90278549870671      -1.27206058791154
H        -2.85241415806925      -2.20868807951919      -0.10911809243833
H        -3.88474080809824       0.00329116215741      -0.68435013458389
N         0.58966269000029      -4.73206770528400      -2.72621961747315
S         0.35751388373478      -3.31211191698337      -3.39181240004905
S         0.68185193221757      -4.76217206771051      -1.14646405350251
F         1.80639611458011      -2.56182868455852      -3.21993456138346
F        -0.86785764525981      -4.49530916425675      -0.66003217796405
O         0.21174934591487      -3.47833828040417      -4.79482562847044
O        -0.53642079444220      -2.41303521592006      -2.70571526278436
O         1.38265970442276      -3.67179154030968      -0.51465801317026
O         0.95952842971423      -6.08863899019002      -0.72371137098245
