26
C6H11F6N2P optimized with ADF in AMS.
N         0.67849717895414       0.07330740538261      -0.55169768777506
N         2.54534204759193       0.96653709955282       0.10172231473852
C        -0.26239236964583      -0.82456146806277      -1.24684784988927
C         1.98324434925750       0.18068617567417      -0.82609596602954
C         0.40254548045819       0.78931025249926       0.59469925804683
C         1.57617440973059       1.34929631381289       1.00611967669980
C        -0.67157218991580      -1.98158950386672      -0.35047304557047
C         3.98519215862997       1.17531530499807       0.25070386986549
H        -1.12104035082630      -0.21457019911523      -1.57033408215846
H         0.26601519103530      -1.19107523436163      -2.13673765865348
H         2.51440940789503      -0.36485221484735      -1.59824613650481
H        -0.59161204637116       0.83539147999932       1.02009922864138
H         1.80519342071419       1.97502202794144       1.85960532774993
H         0.21654356880469      -2.54722841060990      -0.03915330708210
H        -1.33921499497512      -2.65071512579978      -0.91343818925311
H        -1.21124686983054      -1.63082378869884       0.54202379808742
H         4.43841711937804       0.22798243047457       0.57108725334026
H         4.41266680642572       1.48477056693111      -0.71016253076352
H         4.14577931868329       1.96345631034256       0.99406464011969
P         3.34604920943608      -2.98209729423727      -0.27512647769807
F         4.29275164824265      -1.68307450700309      -0.77398197646309
F         2.51832831791481      -1.92439338100973       0.73678090148232
F         2.26553980503321      -2.58239076540242      -1.51086933822097
F         2.34168310930427      -4.19075583506630       0.19318508113965
F         4.14449896768305      -3.96881100584835      -1.30144150071229
F         4.39924272869210      -3.29877470167945       0.93440535596296
