48
C14H25F3N2O3S optimized with DFTB in AMS.
N         1.25119204445943       1.96092281136056       0.99249221606202
N        -0.69952447341102       1.91473835114770       0.07617072683425
C         2.69342367942552       1.81439411951889       1.18126200419629
C        -1.74357533098017       1.69823731080339      -0.92039796444380
C         3.08876088774954       0.35928530908600       1.45471503271011
C        -2.21164460344310       0.23593551663737      -0.91427296470633
C         2.68590948920403      -0.59270203412181       0.32753658757188
C        -3.24369476406870      -0.03679725567697       0.18267161632580
C         0.60110961971361       1.71078281221337      -0.14248515924788
C         0.35135734470365       2.30811693956863       1.95889545454887
C        -0.88082256336007       2.27481142825169       1.38427815950220
C         3.19965202719595      -2.01054404935840       0.59997208579273
C        -3.58028257842125      -1.52929111149948       0.26473721912986
C         2.75104125536756      -2.97747902040160      -0.49335473739758
C        -4.56416156012755      -1.80872624723016       1.39833880524797
H         2.97406933778553       2.44275616618271       2.02930074169349
H         3.18402399201918       2.18930259887084       0.27744524304169
H        -1.32232679392646       1.95945294813444      -1.89514531271714
H        -2.57018040016107       2.37788493202801      -0.69754883828331
H         2.63403450540424       0.03376709051428       2.39164990344835
H         4.17541206429826       0.34775759594369       1.58081749093430
H        -2.64828758189036       0.01899110291691      -1.89368905817427
H        -1.34193846579980      -0.41330924148893      -0.78047445224231
H         3.08277399781635      -0.22787457847446      -0.62866402013248
H         1.59391956178512      -0.62200333913751       0.25159383196256
H        -4.15121390211561       0.54144949866748      -0.02301606162164
H        -2.84601770456096       0.29436641667280       1.14454153204801
H         1.04632516882868       1.43515113269225      -1.08224372697268
H         0.65172938798553       2.52597167635610       2.96848360413411
H        -1.85406578553845       2.47085889694267       1.79701566876693
H         2.81270148071785      -2.34819066201691       1.56514173120930
H         4.29328439313159      -1.99917212106591       0.65567164764033
H        -4.00684560788330      -1.86119893939895      -0.68813447091069
H        -2.65961759902895      -2.09480459861821       0.43802870422579
H         3.12775062546296      -2.66245745177969      -1.46857713512483
H         1.66185459172453      -3.02082167064458      -0.53954057808166
H         3.12864761852421      -3.97790150978933      -0.28189719198623
H        -5.49451880773861      -1.25956960886053       1.24530866696059
H        -4.13409104717974      -1.50876630617749       2.35397399298219
H        -4.79047410647509      -2.87407860619627       1.43844467284841
S         0.58276945634433      -0.89171549728319       3.96923770869659
O         1.51232124517093      -1.81477798561629       3.35579994655879
O         0.98272175779067       0.50714538204620       3.86870387101731
O         0.02677255929452      -1.28602569843752       5.23342283550154
C        -0.87220357357664      -0.93764771395094       2.80091629289924
F        -1.51601788712584      -2.09621374392216       2.78208860631341
F        -0.46503425157625      -0.68867014535874       1.53662153828961
F        -1.76337572921478       0.01966316035007       3.09884351914832
