26
C4H12F2N2O4S2 optimized with ADF in AMS.
N         0.38341446619573       0.00768528633268      -0.14420882330660
C        -0.34098561786847      -1.23761271065635       0.27114204018014
C         1.00376901178804       0.64285384572662       1.07005964797411
C        -0.57946382842864       0.96385768831909      -0.77399390234261
C         1.45602732435815      -0.35789209673608      -1.13610107683878
H         0.38189746151107      -1.91691493303578       0.73921498892850
H        -1.13019510146409      -0.96787859725092       0.98473345016941
H        -0.77784033127348      -1.70504233108545      -0.62058298295351
H         1.54073944240888       1.54472459617533       0.75411355010251
H         0.20039279647431       0.89229257373996       1.77569280140175
H         1.72261365289093      -0.06165933005124       1.51415314736238
H        -0.02791469888547       1.86060405028630      -1.08113468587167
H        -1.03378650150929       0.48491357897359      -1.65051086045901
H        -1.35257728617960       1.22853404156163      -0.04115544704087
H         2.04158351087942       0.53613270277021      -1.38117071956438
H         2.12482184509398      -1.10283236328644      -0.68167762223395
H         0.97414959883381      -0.76762772303145      -2.03308091032713
N         4.15072488805330      -1.79515826054039      -0.23088197800110
S         4.49774122417532      -0.79283006821275       0.95872905009781
S         4.81441022006769      -1.69363547329514      -1.70782078377635
F         4.04987730083514       0.72565946634712       0.36453241785368
F         6.42473894032885      -1.78477459153627      -1.43666446005149
O         3.50004568857983      -1.02044422707717       2.00215587829425
O         5.89078692540911      -0.62003519378659       1.30152211696705
O         4.61393519262688      -0.39942165539213      -2.33975499671895
O         4.46081663039859      -2.90798664895838      -2.41174513684519
