51
C13H24F6N2O4S2 optimized with DFTB in AMS.
N        -1.20572358201348      -0.23015934937537      -0.04835993752720
C        -1.79575935317494      -1.46628868354851      -0.69854792314981
C        -2.10186356788055       0.07892797558299       1.11687340345635
C         0.17940880336364      -0.53458117449972       0.45612214934778
C        -2.89754145196514      -1.97860745558585       0.22467146703409
C        -2.65813843587396      -1.26617225388486       1.55392537790032
C        -1.20132598162052       0.91084123392101      -1.02624411215663
C         1.21150277102806      -0.71796420903015      -0.65600979607242
C        -0.68552927422572       2.22799388793350      -0.45491273989846
C         2.44804983399876      -1.44734598539175      -0.11871652602695
C        -0.75606043548878       3.30042777345163      -1.54333597630647
C         3.44735973188939      -1.70021557721001      -1.24566094178249
H        -2.18013105360997      -1.19460337863500      -1.67970697188049
H        -1.00623238434568      -2.20401977372042      -0.83325659424579
H        -1.53816435261881       0.59813664836685       1.89126801510103
H        -2.90679338668807       0.72426224234523       0.75756464456096
H         0.09578332820312      -1.44656660756585       1.05298048736846
H         0.47737057558169       0.28157999085007       1.11898140404006
H        -3.87913215866594      -1.71196890873787      -0.17376718025675
H        -2.84843126010134      -3.06284268870030       0.32863398395984
H        -1.93137539800085      -1.80779670699094       2.16473680610039
H        -3.57580188407848      -1.14169002393161       2.12939154103786
H        -0.59336927075472       0.59823268989602      -1.87709137617392
H        -2.23055719860955       1.03114273343552      -1.37311683143736
H         0.79062368701146      -1.30109219113566      -1.47621578074662
H         1.51042799911940       0.25518774607275      -1.05371273345297
H        -1.28923175523714       2.53570981965369       0.40435645540551
H         0.34991643002730       2.12169507858074      -0.12032303728177
H         2.91716082940945      -0.84984965910955       0.67047838172640
H         2.14341513153454      -2.40409881879146       0.31861209771672
H        -0.14868032772079       3.00913851245414      -2.39934860374647
H        -1.78352742143454       3.43270475612932      -1.88118651757621
H        -0.38679037801075       4.24708422080526      -1.15062535936018
H         4.31810654975087      -2.22891652718283      -0.85861895786407
H         2.98809002427952      -2.30578567276803      -2.02729359152845
H         3.77657856598739      -0.75732577877601      -1.68343642285934
N        -0.74810321727859      -0.70769794422255      -3.60174707272898
S        -0.82185361780093      -2.29503673641771      -3.84505229253759
S        -1.56199427092292       0.26155836587420      -4.59373456548428
C         0.06918834459926      -2.73907192476807      -5.43441864257805
C        -3.40416403529431      -0.04172349327006      -4.37639636778668
O         0.00673858342059      -2.87009882998519      -2.80148664367985
O        -2.16452568507667      -2.81029992837126      -3.97923674535521
O        -1.30021317718251       0.05837106545782      -5.99290229933950
O        -1.39781327395514       1.58537109506805      -4.03593903914413
F         0.56065658802079      -3.96124257902977      -5.30669851405945
F         1.06761337015044      -1.89637699085790      -5.63562165279909
F        -0.75302870957190      -2.71009359080032      -6.46016714138029
F        -4.05089467888666       1.08245446416936      -4.63900389543784
F        -3.64302842129117      -0.35856111484976      -3.09543917394129
F        -3.86731595949505      -0.99553402530382      -5.15013833877276
