29
C9H13F3N2O2 optimized with DFTB in AMS.
N         1.60122641607424       0.21132579522961      -0.34778585022598
N        -0.48590381958428       0.45731027628378      -0.81448000482832
C         0.60156485187336      -0.25819887404435      -1.09112147297725
C         3.01027687163135      -0.12355585381631      -0.53102637319505
C        -1.72673386942003       0.43163431515301      -1.58281449271397
C         1.15093605099844       1.27138751954495       0.39200607604218
C        -0.16584645452654       1.42585749606996       0.09875220695221
C         3.64443742713398      -0.57198844170554       0.77696468520872
C        -2.92347639670385       0.16097427323122      -0.68271601910603
H         0.66897093312342      -1.05358278959240      -1.81310691674312
H         3.06777369884285      -0.91109140033616      -1.28610876325746
H         3.48724259782233       0.78209918641295      -0.92390553573593
H        -1.80141478051656       1.40922312754468      -2.07252927343243
H        -1.62754837070386      -0.34198269198872      -2.34753477610928
H         1.80459066731742       1.84950754155750       1.01947938491697
H        -0.87743379459846       2.16437789388065       0.42055792011320
H         3.59801401162734       0.22220776376952       1.52155358991717
H         4.68946179548488      -0.82146137566683       0.59751345372016
H         3.13322102074769      -1.45209300449427       1.16834811899525
H        -2.80905254256201      -0.79557606275112      -0.17186029776048
H        -3.82631010641243       0.13031648922855      -1.29134566956894
H        -3.03140919018131       0.94781824360084       0.06336925064602
C         1.19865784735075       2.43076567176335      -2.33831370892441
O         2.22978667953626       2.56504654301308      -1.69188059638603
O         0.05041487213627       2.82366915671556      -2.17880237790919
C         1.35756330115073       1.38857755920521      -3.60318687044616
F         0.21052030071861       0.67824547429636      -3.78620703606562
F         2.30555986249541       0.45064444828661      -3.33591813456300
F         1.66989049654399       1.93085105680831      -4.78290333666323
