40
C12H25NO2 optimized with DFTB in AMS.
N        -0.23293544757804      -0.11952465787182       0.10756967212700
C        -0.80739514201075      -0.69803915088241      -1.15086249703216
C        -1.41740681022032       0.49482262367561       0.78297319123922
C        -1.86519714606370       0.30201927096792      -1.60411028658237
C        -2.25786611354987       1.09148590599038      -0.34382629793547
C         0.77911161381891       0.92532972757518      -0.27237640902370
C         0.35088045062505      -1.19407444321364       0.97568440962810
C         1.48149888982360       1.61476176156660       0.89279373542886
C         1.56392864503761      -1.89425184817305       0.36618261730110
C         2.58785299840757       2.50359718340097       0.31991551348431
C         1.98243306064018      -3.05934375099681       1.25918951832192
H         0.00834340294556      -0.84151276261711      -1.87399285667060
H        -1.25777825353394      -1.66129424835854      -0.90123433505757
H        -1.96161983692549      -0.30393738087487       1.29285785125945
H        -1.08722339227816       1.22798018390176       1.51827787934103
H        -1.46524534983080       0.97116413223588      -2.36826731068896
H        -2.72207682925659      -0.22300410010879      -2.02969737362007
H        -3.31999803497014       0.98569751067629      -0.11566479023316
H        -2.04189426092444       2.15463412897779      -0.46730333439911
H         1.53654844185600       0.42430866708413      -0.89212741756767
H         0.25831394204363       1.66398192626266      -0.88439098176379
H         0.60712155050676      -0.73475957993976       1.93415100560876
H        -0.45095775873989      -1.91842635436913       1.15218372317372
H         0.78337068946299       2.21999172564140       1.48150116928018
H         1.93654089856516       0.87726947536478       1.55845283553232
H         2.39743464212669      -1.19576552226568       0.26120865651912
H         1.32196092426461      -2.26206034130211      -0.63301066580931
H         3.26547694843827       1.89958559016795      -0.28493807279328
H         2.16260144028083       3.28801318518563      -0.30730224984680
H         3.14841604014767       2.96682023264022       1.13129993422160
H         2.24912572155652      -2.70662085132681       2.25694878296171
H         1.17549828393855      -3.78870568314514       1.35147380870109
H         2.84919042149449      -3.55398056279620       0.82282579653751
C         3.87185728626645      -0.97084720586095      -3.65138947330641
C         2.85445353431145      -0.72969341319067      -2.51386848507073
O         1.70067857275578      -1.18622673123257      -2.67649232656486
O         3.26578290615910      -0.08983844537790      -1.52184731801388
H         3.46708310558259      -1.66664423805850      -4.38347956238537
H         4.08707720994227      -0.01717586603825      -4.13239511389050
H         4.79657821738386      -1.36409023181449      -3.23175304641124
