48
C12H22F6N2O4S2 optimized with ADF in AMS.
N         0.40128832213810       0.65112075040560      -0.86207765074210
C        -0.45773332620103       0.33961931999838      -2.07672686386706
C        -0.05375990560591       2.06024149561207      -0.51068281786250
C        -1.82757449646082       0.94902362427265      -1.77509680897922
C        -1.56540140424256       2.05426498188557      -0.72015340845854
C         1.86906864475286       0.61874778757870      -1.23190736900124
C         0.07171544390266      -0.28496273514854       0.28224829684281
C         2.80448201576864       0.98426326713060      -0.09231724177672
C         0.56576954237488      -1.71378164069755       0.11585235288350
C         4.25417470956662       0.92010158442196      -0.57323921678463
C         0.05879938721100      -2.58779150292941       1.26402063251422
H         0.02468959125349       0.84908666458959      -2.92435604218732
H        -0.45729468084167      -0.74383674841669      -2.24935541982777
H         0.27004856184915       2.29838591022469       0.51035523646145
H         0.45186572865982       2.73070483857768      -1.21903145663296
H        -2.24175379183621       1.37388136548325      -2.69997048531702
H        -2.53699878562290       0.19704705785249      -1.39742509625810
H        -2.10254046512739       1.84446616349733       0.21755329246057
H        -1.88238163892299       3.04078139796168      -1.08368392374898
H         2.07368160142640      -0.39258022946841      -1.61514551167857
H         1.98285334544807       1.33318460074780      -2.06048398891219
H         0.50073262578916       0.16392966408779       1.19051409463417
H        -1.02313777832261      -0.26760284669983       0.38625637821322
H         2.58766600739768       2.01023557078565       0.24645961642860
H         2.67085473374289       0.30386417840934       0.76657437018284
H         1.66704548619956      -1.73608291481387       0.10199058278195
H         0.22072504988698      -2.13553297887294      -0.84238573837706
H         4.51141072795618      -0.08889615958196      -0.93313685661054
H         4.41767941766402       1.63458347083128      -1.39221178170515
H         4.94120047515628       1.17382188363504       0.24634629153639
H         0.39833451373163      -2.20372183098068       2.23888751595615
H        -1.04134187316444      -2.63019027842685       1.27990813604746
H         0.43465269742874      -3.61508261524928       1.15874248653834
N         1.47975853317751       4.64574489951648      -4.12664422893557
S         2.72071911655121       4.54330331127582      -3.12251666774292
S         0.39926245957743       3.47712002275251      -4.27538947988481
C         4.07075794189083       3.61079439655841      -4.07843304717053
C        -0.16090289446074       3.89592754134202      -6.02347495500260
O         3.28959787720386       5.86661143304929      -2.94509860503078
O         2.48252155827690       3.68337285066527      -1.95140030188051
O        -0.79594118396057       3.65437273924621      -3.44198761757252
O         0.94582636570738       2.11087342365240      -4.35449631796871
F         5.27533687665024       3.88508985082015      -3.51719206980420
F         4.09980840475192       3.98765937121357      -5.37417589347145
F         3.88514983871216       2.26624314086936      -4.02418358647529
F        -1.10710448957526       2.99244323632975      -6.39030793472959
F         0.86610968506514       3.81924034849946      -6.89367325628337
F        -0.69799929622428       5.13129829570617      -6.07763099450112
