59
C17H36BF4N optimized with ForceField in AMS.
N        -0.52298362372208       1.78375393045551      -0.19920117074789
C        -1.38180908677358       2.32428652662383      -1.30396199104374
C        -0.21103846917887       2.90205744893858       0.75078512005024
C        -1.20256255260635       0.66712554344202       0.54815287117531
C         0.75879320897346       1.32365061124147      -0.83926414894622
C        -2.67187155120220       3.00843092594692      -0.82110453314424
C        -1.45815943593931       3.63237089710371       1.29081425162772
C        -2.34908800998770       4.13249286759447       0.15797189887593
C        -1.51083663389131      -0.60607436373643      -0.27577192555365
C         1.77542983578805       0.62752632166171       0.10044833176488
C        -2.20397194795886      -1.65644792270063       0.60211739130692
C         3.05207874010491       0.25802768259835      -0.66756286064043
C        -2.48744065872980      -2.93893141488208      -0.18661230850248
C         4.05686266043024      -0.46753906321311       0.23469732392113
C        -3.19213477511896      -3.97622179177203       0.69383236340119
C         5.33152379740605      -0.81691211415824      -0.54152237806344
C        -3.45866179299119      -5.26188309580654      -0.08078658339315
C         6.33608628088841      -1.54247213183930       0.34672353833391
H        -0.81487861314922       3.08507110665545      -1.89051748738810
H        -1.64828571897126       1.53658841302255      -2.03877607373302
H         0.35192903035789       2.53069594693048       1.63384062967584
H         0.43444688311527       3.66548867243468       0.25793701510168
H        -0.59487223480409       0.37356935733942       1.43259143653817
H        -2.16342720628753       1.00596488172320       0.98068964638099
H         0.54292410431748       0.63286958584012      -1.68521826414665
H         1.27992418153723       2.19098752615161      -1.30790850393413
H        -3.19788496777962       3.44317340716571      -1.69910013420077
H        -3.36951300013082       2.27800790166821      -0.36212588527473
H        -2.04002429094792       2.97779003247481       1.97254038125380
H        -1.12986912347104       4.50536819824306       1.89565543641499
H        -3.29343306379406       4.53257890475346       0.58445239816865
H        -1.83576237677082       4.95899472212834      -0.38149014475603
H        -2.18892217391605      -0.36872362460679      -1.11985191319853
H        -0.57812188705521      -1.05036217046455      -0.67864728128612
H         1.34572708333485      -0.30611306358402       0.51726196288769
H         2.05662172475200       1.29703412712816       0.93819423184566
H        -3.16393165602309      -1.24169574812157       0.98239745994003
H        -1.55532929949357      -1.89884190865012       1.47284763152017
H         3.52179053072510       1.18373845511486      -1.06729685993284
H         2.78965677322829      -0.40226178886846      -1.52355453250715
H        -3.13191466528317      -2.70002046295003      -1.06138759195337
H        -1.52797341304470      -3.36166660083580      -0.55839673481373
H         4.31780375573579       0.18454592350883       1.09738882676730
H         3.59538281308893      -1.40188640813315       0.62431580598034
H        -2.55856642646715      -4.21269042316204       1.57643954249231
H        -4.16029651866557      -3.56577489770724       1.05527817875883
H         5.07805467471442      -1.46972700690430      -1.40523517218765
H         5.80106019021333       0.11329719480244      -0.92963591594145
H        -3.96785752207920      -5.99468926075632       0.57998438610912
H        -2.50215798502610      -5.70369394376953      -0.43257082091082
H        -4.11189937165247      -5.05547894570272      -0.95510715978370
H         6.62549219989191      -0.89945030286132       1.20490615840131
H         5.89902415271862      -2.48993761244931       0.72754213734061
H         7.24677403232227      -1.78178355979002      -0.24197661592782
B        -5.31979056517720       6.74880936448333      -1.91389907152472
F        -5.15218827999276       5.73682340367368      -2.89629549405666
F        -6.70471026300742       6.99540441361793      -1.71852046215561
F        -4.68282398690522       7.94149748049955      -2.34830774329693
F        -4.73977900114903       6.32254713565920      -0.69093758068897
