42
C12H16F6N2O4S2 optimized with ForceField in AMS.
N         1.74500797600010      -0.02920364520714      -0.53024091418792
C        -0.63080617131092      -0.01018660146588       0.09185765281579
C        -2.07296294970506      -0.02328040106288      -0.42537980802975
C         0.37703811523564      -0.06293205536521      -1.06096772839557
C        -3.07031484327614       0.03377287429167       0.73749288688483
C        -4.50924261569726       0.03543930141754       0.23113281505871
C         2.37262671856688      -1.19821396537010      -0.19634311798897
C         2.36107262286967       1.17407386435136      -0.31869759198525
C         3.64602816111912      -1.18013945226430       0.37802447502627
C         3.63428075453329       1.22789193863097       0.25356194468436
C         4.27301993015790       0.04243902528581       0.61230473840861
H        -0.46788346260186      -0.88651802022569       0.75721625916457
H        -0.45850225956714       0.91639767946836       0.68257855184767
H        -2.24507139821953      -0.95152335164523      -1.01369738564669
H        -2.23269437170263       0.85331427376826      -1.09129498252190
H         0.21850691306335      -0.98870004227833      -1.65830200576835
H         0.21018820581849       0.79693245170183      -1.74784136328957
H        -2.89880163873179       0.95630302350872       1.33413667731857
H        -2.92345653656089      -0.84640328988158       1.40095091000841
H        -4.68932124331133       0.92012448318373      -0.41601580719398
H        -5.20611666387167       0.07933873001041       1.09439335217173
H        -4.71612282023174      -0.89065553782631      -0.34621690494530
H         1.88148285560828      -2.15083058514334      -0.35612495463002
H         1.86053731902345       2.10036231265579      -0.57471418541259
H         4.13563003301279      -2.10597451983434       0.65158594066782
H         4.11459725927107       2.18163764819516       0.43047992116014
H         5.24648596994543       0.07213157498318       1.08150593583024
N         8.22346923718541       1.80236623803352      -1.51408434417864
S         8.32302838245592       2.33549178031651      -3.06081492146897
S         8.53767697317181       0.25234810661456      -1.08281425319829
C         6.72138188188862       2.20591638481085      -3.82831823609164
C        10.19325764830680       0.14926877928660      -0.43846560370675
O         8.74067902899502       3.77891484075330      -3.05792737705842
O         9.32145264604363       1.52484391088622      -3.84034409802172
O         8.39311278970506      -0.67294604481292      -2.25937267894097
O         7.58320324114809      -0.16064687423890      -0.00017333405947
F         6.78936077345390       2.67596576970911      -5.12584829677006
F         5.80732307051422       2.95904027622623      -3.11652037807860
F         6.31443010092765       0.88571841358402      -3.84061330418008
F        10.47169012647531      -1.15670236215721      -0.08364208736033
F        10.30459825203192       0.95893389275536       0.67582330944934
F        11.09442494675912       0.56586572115028      -1.39903901258725
