49
C13H21F6N3O4S2 optimized with DFTB in AMS.
N         0.95373332965151      -1.14180175597255      -1.20805052708062
N         2.57079026727085      -1.47640463390325       0.17490129391618
C        -0.33890881872378      -0.75728451735983      -1.76597002330868
C         3.39647359090276      -1.45185009349949       1.37942234598525
C        -0.37757375693059       0.73206435820847      -2.12468971586621
C         4.10102654188801      -0.09959699918849       1.53239202618721
C         1.31497829438099      -1.04066989027125       0.07345849193083
C         2.00732082754271      -1.62491466854588      -1.93485138301922
C         3.02125085871976      -1.84666976810105      -1.05909687283826
C        -0.45215225137234       1.63232874974680      -0.88786823166150
C         3.13254743458245       1.02941115019521       1.89267522777689
C        -0.68068065485281       3.09034429785472      -1.28103999252266
C         3.87506784622865       2.34818031604047       2.09851653110641
H        -0.49608063633806      -1.36413585919281      -2.66102202938156
H        -1.11219321848061      -1.00029509559633      -1.03123286456794
H         2.75191946319416      -1.66039225831349       2.23834829701853
H         4.13460099807132      -2.25085242792066       1.27935973111157
H        -1.26412467027558       0.89091293726079      -2.74582204058151
H         0.50312116189914       0.98341679131229      -2.72111614897616
H         4.62862388019093       0.14354949454075       0.60485539950178
H         4.84603013280878      -0.21272637065318       2.32510348721248
H         0.68970285925456      -0.70903452082726       0.88331435714121
H         1.96312409324503      -1.75567807266183      -3.00145788338808
H         4.01830592136479      -2.22059324404489      -1.21310308970203
H        -1.26999323941384       1.29478861551582      -0.24071118801006
H         0.48026324389763       1.55119913035744      -0.32129447078952
H         2.40104113336216       1.15089338016232       1.08697440857274
H         2.58463308102218       0.76527837588393       2.80519724112482
H        -1.62455302446522       3.19825875269354      -1.81682947387488
H         0.12665991257815       3.44274375657763      -1.92161726157945
H        -0.71298887777038       3.71275396763487      -0.38719912211929
H         4.40649180948091       2.63138509252298       1.19055131868870
H         4.59524494411049       2.25765992170103       2.91222548508830
H         3.16441706056815       3.13639397147040       2.34650430024251
N         5.50871331146583       1.05679614519375      -1.25702744971257
S         4.97567169190464       2.40562817983368      -1.94216314675851
S         5.62657228713638      -0.22299417852535      -2.21579936703582
C         3.12072192863075       2.16984951325410      -2.17078132117051
C         7.09532974000251      -0.00477270307973      -3.37090786806494
O         5.04267928686225       3.43341770152642      -0.93877854468749
O         5.48061816451849       2.67834536283322      -3.26065279469641
O         4.48365696023051      -0.44084520854114      -3.08662927860948
O         6.00320168255497      -1.32731178380157      -1.35596473483811
F         2.48288306792184       3.29557727615153      -1.87788142650670
F         2.67735875676263       1.22888478824377      -1.31987514553773
F         2.77586375816499       1.80283550861851      -3.39199015395497
F         7.69951382723912      -1.17653284813108      -3.50080475490016
F         7.94980255357575       0.86294896711082      -2.86181835219193
F         6.69895237143646       0.40408718508587      -4.55773827497248
