36
C8H14F6N2O4S2 optimized with ADF in AMS.
N         0.79331356103504       0.33550708434782       0.00596188302047
C        -0.45392890574381       1.06466383732269      -0.50598444661472
C         0.28848052182660      -1.01335479940231       0.54516244759000
C        -1.62648243533689       0.32597661945618       0.11506654028250
C        -1.14589972656132      -1.12662514804861       0.05218032009832
C         1.43606935179609       1.12052470898731       1.11419293572154
C         1.75638259274818       0.12010789507945      -1.12340254323024
H        -0.46194614031752       0.95383122593890      -1.59939974107050
H        -0.36423394121804       2.12850608837206      -0.25202146211100
H         0.32868691410964      -0.95338762794465       1.64090330251799
H         0.97691743082808      -1.79895773381867       0.21132728575508
H        -2.55894779318986       0.51028125077054      -0.43743171129426
H        -1.78227907299456       0.63804525532824       1.16115934587890
H        -1.73387769507304      -1.81548272784469       0.67497241444779
H        -1.17992734707836      -1.49602413238835      -0.98682887270993
H         1.91975046058432       2.00644115834618       0.68548914878219
H         0.64953747187335       1.40270014383993       1.82670395282247
H         2.20284403423684       0.50790636057783       1.60319660043596
H         1.27470563060601      -0.52902963786753      -1.86551031723368
H         1.99979733409301       1.09689662611001      -1.56112633833585
H         2.68093892766750      -0.31428047616261      -0.72843369806303
N         6.53860026341089       0.26634341068226       1.37778366684811
S         4.97785692105498       0.03669930511253       1.33839634658856
S         7.39631549085503       0.44690042207892      -0.00381388437199
C         4.65453435757631      -1.80993843199786       1.02117339903385
C         6.93849230978253       2.19184443791832      -0.67532040690429
O         4.40755703389907       0.20724154715843       2.67372812991843
O         4.26921064176525       0.67120786026221       0.21264286683031
O         7.00836868084188      -0.45949786741565      -1.07842921117725
O         8.78535886849631       0.58893331694230       0.39508503744856
F         3.34679139842547      -2.08119455218398       1.38371482465577
F         5.45875391585304      -2.59964541139444       1.75510564346483
F         4.77001738423879      -2.14736239367632      -0.28204222016357
F         8.03706544411642       2.72106251892987      -1.26551037499179
F         6.54051730491539       3.02746458021238       0.31399910715467
F         5.95666223077740       2.13353641967130      -1.60658236382419
