37
C9H17F2N3O4S2 optimized with ForceField in AMS.
N        -0.02794680126494      -1.33230301434978       0.34966862938247
N        -2.04853876554171      -0.41049236720853       0.24174479492928
C         1.32804272052122      -1.63785201811363       0.80290971859621
C         2.37034861443977      -0.87260473149824      -0.02340497517425
C         2.21105234492129       0.64793185946028       0.12223721910281
C        -0.93959648914968      -0.57337713615983       0.98912424904619
C        -0.58152905902209      -1.66684200852471      -0.83339029635466
C        -1.83444801415884      -1.09293166022125      -0.90117552969977
C        -3.19978754335340       0.43124276652520       0.55600543568664
C         3.30644070936488       1.39399803953712      -0.63262837226553
C        -3.12627944835247       1.73782313442495      -0.22654364362016
H         1.44173083349480      -1.37225574482972       1.87713643028817
H         1.50858258289777      -2.73027346289500       0.70725086160482
H         2.27888782932733      -1.15932140039004      -1.09393812857061
H         3.38257455587379      -1.17164392531820       0.32612091857542
H         1.22558150126369       0.96559023737987      -0.28222028407877
H         2.25791710307561       0.93018218732087       1.19663012639655
H        -0.77917425497724      -0.10876260278406       1.95420136782729
H        -0.09975216472572      -2.25810114757741      -1.60121905395426
H        -4.13745959269950      -0.10909417235581       0.30301754966099
H        -3.21703566413061       0.66248014149403       1.64354933341420
H        -2.52543709312185      -1.14660150223461      -1.73248487698267
H         3.27449593694997       1.13672013456222      -1.71283198264377
H         4.30467648609988       1.13341946156545      -0.22107321155661
H         3.15213845727086       2.48836347372683      -0.52383499349226
H        -2.22200961696788       2.30832089263782       0.07498056418009
H        -4.02648272104484       2.35253860898578      -0.01646478059817
H        -3.07712946703163       1.53247388468168      -1.31648327116304
N        -5.12626737632757       3.97936164828192      -3.76319380459240
S        -4.01820826188551       3.97721331536474      -4.96730045064559
S        -6.13443735611209       2.71037583630138      -3.53597444017968
F        -4.80035831735503       4.09175154115409      -6.44317402910169
F        -5.28143583258697       1.43512860044019      -2.86752855092595
O        -3.09136261068322       5.14757993783077      -4.80164242601693
O        -3.23105828693903       2.69750744384167      -4.93320981946257
O        -6.71031926091916       2.27043531921239      -4.85259414833246
O        -7.24330281964989       3.10914894683158      -2.60460186287932
