29
C9H14BF4N optimized with DFTB in AMS.
N         0.78042578508661      -0.06361726788961       0.62449978628267
C        -1.59726716624946      -0.17381525428176      -0.14039672583382
C        -0.61300302666782       0.28416869029514       0.93481143273728
C        -3.02578593523519       0.07381377565993       0.35611577232463
C        -4.05410056689125      -0.38712741365181      -0.67374471772094
C         1.72664623315692       0.88895305031752       0.67182278597049
C         1.10530967935301      -1.35331257459960       0.43350114283619
C         3.05588533034887       0.57156034329866       0.50952454622398
C         2.43087803308178      -1.71938469970117       0.26531786497398
C         3.42282969402085      -0.75736764323383       0.31196119635903
H        -1.47204981338920      -1.24281143005153      -0.32561022682625
H        -1.40914148361679       0.36530587674651      -1.07480647645880
H        -0.84680735262643      -0.21329498316853       1.88255186884965
H        -0.66852941717919       1.36652346861516       1.07366257218548
H        -3.16965266803743      -0.47693284739773       1.29095627668194
H        -3.16397154881445       1.14035257586560       0.56443486789541
H        -5.06064493735760      -0.19565506402496      -0.30238853125471
H        -3.92290068897359       0.14703205612618      -1.61631672939820
H        -3.95045804310207      -1.45611446735972      -0.86170852351509
H         1.39401704645148       1.90505332438872       0.84719817616770
H         0.30008719701307      -2.07484827019135       0.37965025778540
H         3.79919986923038       1.35737714470559       0.54976175996866
H         2.66897502687484      -2.76523050723267       0.12069859212962
H         4.46570938983058      -1.02605126941312       0.19556976706768
B        -0.87242122622421      -2.52620224514569       2.62961946963237
F         0.44986166253599      -1.95506157809177       2.57981446494738
F        -1.74528441306949      -1.51154333858641       3.04377776497291
F        -0.89155778422362      -3.61237291969143       3.44945092180099
F        -1.19757117942660      -2.86698357050629       1.29222257711436
