42
C10H22F2N2O4S2 optimized with DFTB in AMS.
N        -1.27165962896451       0.16615598883747      -0.43858157887098
C        -1.36878095037082      -1.19108602224789      -1.07193653006240
C        -2.47656814356032       0.23933475857776       0.44782295107612
C        -0.02824661641997       0.31463211875198       0.38832865313032
C        -2.86180724057373      -1.47586072121146      -1.22709128688759
C        -3.58447863036653      -0.45662291982746      -0.33468412365093
C        -1.34786183622127       1.23865153140586      -1.46848291444508
C         1.26316575485896       0.20671842251405      -0.41731074064130
C         2.47100984650286       0.20056770769226       0.52488152012431
C         3.77214567180659       0.10797929347520      -0.27950128667354
C         4.99372509111728       0.11668089682387       0.63659814195814
H        -0.89581009711647      -1.90575241876549      -0.39516860763329
H        -0.84050635905440      -1.18327386644075      -2.02460272550681
H        -2.68952928564648       1.28204897128123       0.68486134961439
H        -2.24800651786780      -0.30349458294874       1.36817277433687
H        -0.06179870510954      -0.46895764498010       1.15103326246353
H        -0.09370690689931       1.28716005407259       0.88468281947850
H        -3.07964996995508      -2.49942098694039      -0.91711012628172
H        -3.16677214288384      -1.36091242598237      -2.26801489126321
H        -4.13972515952638       0.26295559033792      -0.93959791008127
H        -4.28529867993361      -0.93791832661530       0.34922928538540
H        -0.52680725008170       1.12745151423761      -2.16954757077393
H        -2.28708889727665       1.14764941580427      -2.00692425140928
H        -1.28803471639943       2.20623083430177      -0.97333758877330
H         1.26112237443588      -0.71069068303434      -1.00957863283115
H         1.35226271555894       1.05045143800998      -1.10371418393890
H         2.39929081155004      -0.65076870241384       1.21115773156619
H         2.47242925399018       1.11656860726589       1.12618838399825
H         3.82846639393062       0.95232975426476      -0.97350757033895
H         3.76521300764163      -0.81208210815087      -0.87226737927056
H         5.02932861790466       1.03814637315554       1.21969265519511
H         5.90409534647689       0.04702708158152       0.04141371184366
H         4.96305530338789      -0.72909728834270       1.32521560811141
N         0.09144255026676       0.15301399591768      -5.38486922547338
S        -1.41794503279429       0.39902338526660      -4.99732767712214
S         1.06892323491474       0.00882963073751      -4.13141550580757
F        -1.42998118841526       1.91805137976644      -4.37667480717226
F         2.37946556403958      -0.27102319810818      -4.98860354472488
O        -2.19289498688783       0.48811684941700      -6.18433979367739
O        -1.93984975919756      -0.36873245926843      -3.89236520116180
O         0.89527438880555      -1.16840613956600      -3.32147211369882
O         1.33911052783378       1.22868304074759      -3.42066654770981
