60
C16H30F6N2O4S2 optimized with ADF in AMS.
N         1.12904269907171       1.29576964424075      -0.13474123984392
C         1.70409275858215       2.23231892627937       0.91611591421477
C         0.98450800675837       2.21697197900052      -1.33401920412594
C         2.08561161844691       0.16768789200693      -0.46472429058034
C        -0.21756079484389       0.79153912068739       0.33742651305236
C         1.02024451253761       3.58503211222008       0.68128098026344
C         0.45823894581516       3.52754446600229      -0.76249492816760
C         2.35858900060134      -0.78145262612234       0.68737303962431
C        -0.89507050934224      -0.20705760360860      -0.58518250876710
C         3.39985501272348      -1.82133811032726       0.26382040747647
C        -2.28748869249010      -0.56736429262482      -0.06137288806090
C         3.78837547254949      -2.76766023262869       1.39596539032595
C        -2.98357316479050      -1.60792674387942      -0.93817830653940
C         4.87249725063038      -3.75229611521163       0.96446285621473
C        -4.37676766745845      -1.97081669005495      -0.43251169311679
H         2.77872444416672       2.29551213246807       0.70135011845770
H         1.53536188685833       1.80073307059900       1.91033002676428
H         0.35103595814551       1.73915602281898      -2.08989633620869
H         1.99980992829222       2.34439338305601      -1.72884103277513
H         3.01284687338442       0.65222851103380      -0.79684047259487
H         1.66532356301135      -0.35750587395026      -1.33438190134845
H        -0.84935489114111       1.68076375515459       0.47991972403517
H        -0.04684319317373       0.34192303227113       1.32625408432069
H         1.76574313394045       4.38520562939822       0.79038612798949
H         0.21925247006923       3.77192570737140       1.41106132637466
H        -0.64208799579294       3.55974229796831      -0.76221264812432
H         0.81055750542837       4.36714360346452      -1.37790564614674
H         1.43868420085390      -1.29789638551517       1.01581084569834
H         2.74997235672781      -0.21984490619231       1.55326316511379
H        -0.29196626846661      -1.12629150996179      -0.65943937980981
H        -0.99128328174864       0.20053414376839      -1.60521912763053
H         4.29647227907530      -1.30157032564069      -0.10748741550880
H         3.01242407168549      -2.40433582014641      -0.59204610663527
H        -2.91148591907529       0.34372512922449      -0.00633603543921
H        -2.20614989889310      -0.95474543427395       0.97154682445159
H         2.89670648381140      -3.31899381807808       1.74768834130045
H         4.14975829834403      -2.17320325277325       2.25508503294350
H        -2.35656289939992      -2.51606374299863      -0.98656542424745
H        -3.05178452699293      -1.22205572559320      -1.97145934297300
H         5.15057415391127      -4.43252109511399       1.78358757302905
H         4.53162150526817      -4.36415997804253       0.11397608503726
H         5.77861813070779      -3.21475060885612       0.64337542419590
H        -4.85395008136374      -2.71688091303181      -1.08528378136078
H        -4.33169665861396      -2.39239831710169       0.58450808748973
H        -5.02982181109207      -1.08412478838845      -0.40066877071964
N         6.03043404043180       2.16072115374445      -2.56613764539917
S         5.35002720949249       0.82240264754140      -3.14826878204701
S         5.50329823393303       2.84008936539105      -1.21733632255197
C         3.82063954234820       1.44316648871367      -4.16052054499180
C         6.16644999975032       1.76217778966262       0.22756887878875
O         6.22240468250543       0.26440925169715      -4.16444938705020
O         4.75220304679926      -0.04738535003477      -2.12986281414564
O         4.04134574508778       2.78902668304362      -1.01378612086359
O         6.18252344901102       4.11113920046271      -1.03961289421036
F         3.99289978737352       1.20287674602960      -5.47498796730283
F         3.59126530505415       2.76794036506040      -3.99421614638507
F         2.69228035368836       0.77902333102982      -3.76139725599670
F         5.16897832986123       1.00651385542207       0.77454225251223
F         6.64003606933029       2.57086226209611       1.20421000077184
F         7.15167808571396       0.93604944092190      -0.17012989887741
