35
C9H20BF4N optimized with ADF in AMS.
N        -0.14989005838701      -0.29459987915898      -0.28535359875676
C        -0.79951589269175       0.69984076770890      -1.23657028391122
C        -0.81822589328313      -1.64985679007003      -0.47281842285242
C        -2.30348638003404       0.78632593660335      -1.07379181155006
C        -2.33200105555373      -1.60026851836939      -0.34074917035272
C        -0.28866675630650       0.13012385065570       1.17101195302206
C         1.30957642900816      -0.38992436422255      -0.68632524438158
C        -2.95400577305939      -0.57819381155662      -1.28835294806111
C         0.23217153483119       1.51345040705169       1.48630462653776
C         2.17113507361368      -1.28951709557655       0.17707279693922
H        -0.53355858397442       0.34219855970393      -2.24609185738887
H        -0.30179189260928       1.66489432043863      -1.06957128039320
H        -0.37695490985866      -2.32475391721451       0.27325400606300
H        -0.51942280591605      -1.98415228820991      -1.48134710786778
H        -2.66609309517425       1.51684845362051      -1.81690506845280
H        -2.57446729517079       1.18246507212454      -0.08139717794220
H        -2.63125149729117      -1.37677799872058       0.69639802281245
H        -2.69818775007689      -2.61725892012157      -0.56173577592796
H        -1.34789213662982       0.06488126163295       1.44153293666094
H         0.23497615296998      -0.64428756657602       1.74877177096445
H         1.30728847487326      -0.73884006707097      -1.73030655805161
H         1.69546513647216       0.63978708726952      -0.68008577033941
H        -4.03098112991938      -0.50357531091775      -1.08021841675936
H        -2.82076838557695      -0.89980015232342      -2.33964054698149
H         0.10459501716993       1.65399041484340       2.56979078317634
H         1.29523568195442       1.65832515499767       1.24210748240200
H        -0.37686708741860       2.29480485130056       1.01300236897919
H         3.17340030517758      -1.32640350692661      -0.27583903895179
H         2.28541920781247      -0.90600154435651       1.19943956815267
H         1.79371820962654      -2.32010577624451       0.22087201657420
B        -3.67327010424315       0.65547605971474       2.40241917990112
F        -4.45976192576263       0.35022296877776       1.25568244300553
F        -4.45988450840962       1.00751098930161       3.49691180159579
F        -2.76731460076733       1.72450240809300       2.05520161870450
F        -2.86093119759479      -0.50270081950198       2.70819447633110
