41
C11H22F3NO3S optimized with DFTB in AMS.
N         0.34573521718460      -0.01114950225846       0.04551924244598
C        -1.13404354821305      -0.18657890799342      -0.09531948179826
C         0.43670645954248       1.21020873913662       0.91435166160239
C         0.98345403128027       0.23838195318636      -1.28856900630309
C        -1.70390216686931       0.12715147630894       1.28861381829833
C        -0.65212726125042       1.02439135015635       1.96188128643248
C         0.96159723659670      -1.19212994048773       0.74781394102887
C         2.48878189452541       0.48892846729561      -1.20899650615546
C         0.86556062208161      -2.50627175919621      -0.00942164530939
C         3.02772947780195       0.86246966994213      -2.59383504789189
C         4.53280298456246       1.11492712667028      -2.52950691271124
H        -1.36435450508185      -1.19095953817917      -0.44746215561883
H        -1.48267617172959       0.53861974593796      -0.83461441329610
H         1.43108998311831       1.29920488345772       1.34355754437226
H         0.23111649409781       2.07526016054171       0.27921568699039
H         0.76412826936829      -0.62443045348697      -1.92273135375685
H         0.48186295474775       1.11169410082112      -1.71631185221008
H        -2.66534185578069       0.63406176323034       1.18938080884979
H        -1.86099439012523      -0.78945077452167       1.86037332781431
H        -0.23854885833486       0.55055619043597       2.85460357653578
H        -1.06912468653020       1.99047011231130       2.24948415544583
H         2.00987571946083      -0.95406469215820       0.91909277456779
H         0.47397396861505      -1.27927217504795       1.71899216002093
H         2.70062043773922       1.29983155095836      -0.50870956831831
H         3.00925834607698      -0.40150803613562      -0.85023652107746
H         1.34573031528385      -3.26448067511392       0.60906471630628
H         1.39421190100063      -2.46489893748495      -0.96036364392669
H        -0.16335789608096      -2.81684027644034      -0.18792969271726
H         2.81873527107124       0.05214212283845      -3.30128313865352
H         2.51883401842367       1.76302847196949      -2.95520150807788
H         5.05463943755202       0.21977571817412      -2.19053559501926
H         4.75139816114761       1.92658838880793      -1.83547379460596
H         4.90747698526025       1.38641233120736      -3.51636539748669
S         3.53220043400853       0.43544311758313       2.32143174962525
O         2.32654294852458       0.09208239703922       3.06955889432189
O         3.46521610531833       1.73954930472630       1.67702282575234
O         4.00350303404048      -0.62948952425609       1.44841525517214
C         4.84498889867672       0.61033152116167       3.60836026156872
F         5.00650708676086      -0.53153350178764       4.26562218589786
F         4.51504117670623       1.55365640609588       4.48214291030564
F         6.00273067242151       0.94109398545399       3.05092508307893
