39
C11H19F3N2O3S optimized with ForceField in AMS.
N         1.92393109226923      -0.93029184416761      -0.22875636258279
N         3.11293852409875       0.94113705359172      -0.06468031405706
C        -0.35681355905051      -1.87296603154721      -0.08902594005550
C        -1.03741875279314      -0.52068812664010      -0.34840252997074
C         1.02268165277888      -1.95340596493780      -0.75758119761200
C        -2.44994794469598      -0.48273318003519       0.24580641828116
C        -3.09685818266167       0.89013952948804       0.02477109822131
C         2.37107650356051       0.16342114202540      -0.87672208585691
C         2.40681869472173      -0.84516943484461       1.02771688147795
C        -4.50917192745206       0.93811690649883       0.59960418099716
C         3.14167353063874       0.31879636884418       1.12997576181072
C         3.70138824037558       2.23535463631105      -0.38333648871094
H        -0.24824131519734      -2.03558801757536       1.00557009043889
H        -0.99209982525278      -2.69006363730670      -0.49516310918528
H        -1.09588073600635      -0.34110671632258      -1.44454024342208
H        -0.43106525936233       0.29092275252355       0.11003591119609
H         0.90629997851975      -1.82923283760817      -1.85697541452576
H         1.46359639631494      -2.95768679156916      -0.57857948732795
H        -3.07321191065719      -1.26740653606401      -0.23719742589858
H        -2.39756728480195      -0.69305546000513       1.33694759781801
H        -2.48341230838905       1.67637944800234       0.51672545088787
H        -3.14481502655207       1.11155318802764      -1.06385358622880
H         2.12960698490807       0.40648586246512      -1.90420119849932
H         2.21852629443266      -1.56203289125087       1.81646236300979
H         3.64088778349592       0.69316498123805       2.01427569646074
H        -4.48820711901889       0.74325775486795       1.69299819159785
H        -4.94510769701456       1.94484112639188       0.42714729362327
H        -5.15404000176497       0.18225934747327       0.10294996147262
H         4.78927091512892       2.21750637683129      -0.16328369013371
H         3.55529839835135       2.47499827469157      -1.45840532301617
H         3.21791377443439       3.02468669878813       0.22956353182448
S         7.37263702632961       1.03125349608429      -2.34741420880895
O         5.89275882158736       0.65213066653104      -2.19222010698350
O         7.97515484010825       0.64180870581432      -0.98921153553571
O         7.34691580193506       2.56613554010016      -2.29110288546312
C         8.19863490541519       0.31788103020652      -3.79931151101183
F         7.58076001371749       0.76909977499483      -4.95016041457023
F         8.11710992905052      -1.06061827104264      -3.74557717128897
F         9.52689678139795       0.69897826362594      -3.81186044637201
