69
C19H36F6N2O4S2 optimized with ForceField in AMS.
N        -0.52449537298823       1.78591873838729      -0.19727105748407
C        -1.37912783557143       2.32225474716207      -1.30607223675342
C        -0.21621985514175       2.90624720747963       0.74974898713038
C        -1.20353554370554       0.67061711234100       0.54948322606867
C         0.75669861356765       1.32635417278790      -0.83323635177920
C        -2.67249099641280       3.00294305035222      -0.82770717786256
C        -1.46788265476124       3.63128649413561       1.28778558235273
C        -2.35249480283593       4.13128927642993       0.14851547294032
C        -1.50995925080129      -0.60374471743951      -0.27370841189757
C         1.77339697043339       0.62905269793925       0.10447469212145
C        -2.20404813578551      -1.65303265888978       0.60495957465815
C         3.04903407776416       0.26152479351692      -0.66719889895756
C        -2.48498755215132      -2.93764387584349      -0.18226892062909
C         4.05657789649746      -0.46234478914370       0.23375035623680
C        -3.18904458596731      -3.97613836751117       0.69810702143032
C         5.33229371200365      -0.81160638873464      -0.54162527577991
C        -3.45378009504823      -5.26403712002107      -0.07543536791675
C         6.33788073877718      -1.53590644545981       0.34855692763763
H        -0.81034444892978       3.08430846415142      -1.88980690830419
H        -1.63885550059992       1.53241608459823      -2.04087019855618
H         0.35166868013234       2.53855555396357       1.63089143972413
H         0.42323214908642       3.67156920700888       0.25187267005626
H        -0.59502255387687       0.37997749952798       1.43384909163697
H        -2.16525903578816       1.01024575671095       0.97847260083536
H         0.53663759563897       0.63309944497552      -1.67258329508030
H         1.27566549369498       2.19397395854099      -1.30105837186165
H        -3.19965644579969       3.43076925072493      -1.70769017053450
H        -3.36650831389153       2.27055769833112      -0.36672984961703
H        -2.05099735728224       2.97251907012534       1.96425279464841
H        -1.14522707232860       4.50194292610658       1.89816809326976
H        -3.29789524933920       4.54262260760776       0.56368148747941
H        -1.82951024694583       4.95080817335113      -0.39187519107502
H        -2.18571103628139      -0.36687352283083      -1.11980539712509
H        -0.57666841304805      -1.04820346251465      -0.67478289701840
H         1.34341361833411      -0.30524675642144       0.51965597554883
H         2.05362767650209       1.29696347357015       0.94373665466101
H        -3.16450618901394      -1.23801841293669       0.98366703842083
H        -1.55641939822871      -1.89266545223590       1.47715589885912
H         3.51595532039114       1.18760933223406      -1.06942657481248
H         2.78641750615372      -0.39942634223414      -1.52245244803475
H        -3.12850788083506      -2.70051673581852      -1.05813348024762
H        -1.52429286544127      -3.35882534196986      -0.55248927033087
H         4.31668478931698       0.19074014779015       1.09579042949315
H         3.59612564743789      -1.39673987273148       0.62424915470638
H        -2.55594703824316      -4.21084088624157       1.58156646304420
H        -4.15792179354686      -3.56686135043556       1.05903526326378
H         5.07988659320281      -1.46517559372998      -1.40513795661422
H         5.80115841334105       0.11853566393523      -0.93067928824414
H        -3.96212993923229      -5.99707583903167       0.58570422929978
H        -2.49711702049828      -5.70601127262921      -0.42679373661620
H        -4.10730537838823      -5.06089075445816      -0.95039092013698
H         6.62731712199714      -0.89244735923913       1.20656409688508
H         5.90234170723418      -2.48346678069428       0.73118702809248
H         7.24934975220244      -1.77580007106009      -0.23860196397377
N         2.60494681637380       0.99521744597368      -6.00745696218523
S         2.14799115472475      -0.38337115973845      -5.24848803986083
S         1.78529515313989       2.40694094060885      -5.85818913681850
C         1.09098485800024      -1.32649268172767      -6.32660807936803
C         2.61069200934407       3.43703314462239      -4.66398969613233
O         3.36923254608204      -1.19728162830435      -4.92778369868241
O         1.40626500734478      -0.06891204069146      -3.98052400102232
O         0.36942643767249       2.16113360933884      -5.41430220892489
O         1.78108526505785       3.11380977252635      -7.18374296279792
F         0.72265683619883      -2.50133117748056      -5.69910478997984
F         1.76805335855422      -1.62336179367768      -7.49393434780486
F        -0.04169650770912      -0.59474872580480      -6.62785889205459
F         1.91498895612284       4.62195600889904      -4.51719876309685
F         3.89418355901959       3.70994015566389      -5.09710550417132
F         2.66868257947363       2.78583408136246      -3.44757579235793
