30
C8H13F3N2O3S optimized with ForceField in AMS.
N         0.08557844933350      -0.61803350092982      -0.42565381534969
N        -1.99271139180626       0.08941276114158      -0.07824485437089
C         1.45530439620036      -0.69585275100205      -0.93053956248042
C         2.46964169370184      -0.37722043255718       0.17448427624448
C        -0.84302926124881       0.30450670472669      -0.74594890899324
C        -0.49923783101359      -1.44510653014412       0.46501709410667
C        -1.78855081366336      -1.00372497210446       0.68245174306252
C         2.32819995182852       1.05672489558219       0.68311886242799
C        -3.20965265218740       0.88778906838102      -0.14043197060271
H         1.59362016741001       0.01464994908292      -1.77533047194111
H         1.64331119710058      -1.71952123038738      -1.32024954756655
H         2.34204360588742      -1.08474022652434       1.02214978613471
H         3.49508483904536      -0.51304486316752      -0.23167309407644
H        -0.67919664764121       1.12362539983792      -1.43583828258268
H        -0.02369794321640      -2.30139856516771       0.92547215243298
H        -2.51927748373869      -1.44412786144220       1.34827214813491
H         1.34712942205239       1.19578408642657       1.18480536740615
H         2.41468828109798       1.77657624013056      -0.15850112137173
H         3.13195210049469       1.27134811610802       1.41829006157978
H        -3.09491736976899       1.71417775722458      -0.87282707133167
H        -4.06106832690139       0.24786376851920      -0.45316702158645
H        -3.42301891170275       1.32033990047708       0.85961050577559
S        -2.07191628480504       5.56421213283532      -2.05453664958488
O        -1.44731925238342       5.08876410344904      -3.37462528128065
O        -2.89751274186837       4.35141763411708      -1.60176998177677
O        -3.14373555918906       6.56342910173962      -2.51450598886507
C        -0.89758130921078       6.20043622829407      -0.82753095748340
F        -0.24434189720846       7.30298722442035      -1.34347613727165
F         0.02594060377309       5.21956497551609      -0.52146536582638
F        -1.57945862327179       6.56393157191689       0.31763443643663
