56
C16H19F18N2P optimized with ForceField in AMS.
N         0.37279631232258      -1.60602696903533       0.32260587044702
N        -1.75116653146217      -0.95053923477949       0.26653078084092
C         1.77151661688096      -1.71157341938110       0.73290480880347
C         2.65199254656382      -0.73600150149519      -0.05962188121436
C        -2.98603835733158      -0.24913094450681       0.61294046866784
C        -0.61308298551335      -0.97248124973002       0.98642395190601
C         2.26206151788307       0.72672477939949       0.20148856180554
C        -0.16147916764612      -2.00697006670470      -0.84853809703012
C        -1.48062483719679      -1.60282117795586      -0.88220472279852
C        -3.20779654638606       0.96740030342678      -0.29645118033123
C         3.21317807777536       1.68850771370109      -0.50319763424716
C        -2.03568382454904       1.94785188984519      -0.24599287092675
H         1.86720331102402      -1.49703072048572       1.82013749015234
H         2.12541334758890      -2.75165337112339       0.56500871219111
H         2.56842515889071      -0.95838031187171      -1.14595869782645
H         3.71017483284232      -0.89491680925165       0.24255105013476
H        -2.94735181943552       0.08902608361351       1.67212027565409
H        -3.84506918277354      -0.94718157240272       0.51417740845753
H        -0.48700160876933      -0.48332309194271       1.94432563919080
H         1.23290048639831       0.91381915930007      -0.17236116923987
H         2.28271446988093       0.93477524290964       1.29347382337939
H         0.37641850883526      -2.52242775610738      -1.63343196781270
H        -2.17736734423635      -1.73997227425103      -1.69877565423307
H        -3.36058340532809       0.63201844606005      -1.34495339236965
H        -4.13018504539283       1.49290874474034       0.03210016242778
H         3.20301345124813       1.50736322188196      -1.59922133501205
H         4.24705473564335       1.55978137230225      -0.11810967671191
H         2.89086377029481       2.73426389204820      -0.31289369201370
H        -1.15000178935954       1.51439614241035      -0.75622854506470
H        -1.76989470034341       2.18419991657945       0.80512189212819
H        -2.31244555496487       2.88865214748839      -0.76612090468221
P        -1.80241368872297       5.59535076836210       3.26924304893465
F        -1.16869063255613       4.36133616968383       2.25119476249854
F        -2.26307768954544       4.97898327674483       4.81171822785275
F        -1.16632025880691       6.49130099372138       1.94498032804116
C        -0.08594614371537       5.26425328767974       4.10953221308059
C        -3.32759587957410       4.64616987938170       2.54890958799233
C        -2.50420972366565       7.36362306449688       3.61536620729414
C         1.18831985169053       5.44602275833614       3.24013496673613
C        -4.72085750265387       5.05556625394403       3.06853479957058
C        -1.51595754249539       8.41683518128045       4.15444346629674
F        -0.05530496849686       3.95392175814332       4.57093793955928
F         0.05045956000878       6.07828482249791       5.21626637996476
F        -3.20464561365825       3.29034843168956       2.83676739212876
F        -3.34737143518575       4.79927596942816       1.16930339342553
F        -3.50554015272697       7.26543769195273       4.56550872926340
F        -3.08277171821466       7.87546726802440       2.46150041784399
F         2.30030699457461       5.33544910606702       4.05633534501354
F         1.23861602894536       6.68090476607891       2.62964683311544
F         1.28572074431718       4.46272561388506       2.27131422416604
F        -5.66008926497361       4.17980450469100       2.55203551201009
F        -4.78730551915697       4.97908310320350       4.44704877366946
F        -5.06992887119970       6.32412671030823       2.65067427948863
F        -1.22976658651160       8.18279488262754       5.48629964193230
F        -2.10348677209476       9.66719162828973       4.07076886707569
F        -0.34762412866545       8.45177322079988       3.42688490487318
