79
C23H36F18NP optimized with ADF in AMS.
N        -0.62167078887480       1.74977684633969       0.42767461669489
C        -1.37908325117255       2.33995260087797      -0.74323450401907
C        -0.54386664053966       2.79876680636149       1.53339275379014
C        -1.30429686810113       0.50002201460486       0.96432620175623
C         0.78573007259768       1.43380733791713      -0.05274220242352
C        -2.76116273337819       2.84146891155048      -0.36228215089771
C        -1.90168084598026       3.34797498928735       1.93691027455705
C        -2.67526067419259       3.89596866867080       0.74131086148260
C        -1.47298793577114      -0.63293151067917      -0.03027616932206
C         1.65342617482481       0.68846354109695       0.94359138052664
C        -2.08157291533833      -1.83985227209021       0.69181166403265
C         3.09925259285007       0.59249367103173       0.45186801503750
C        -2.34511597093009      -3.02219881305729      -0.23520756160533
C         3.97647769362389      -0.16362697820226       1.44882412942428
C        -2.94688841666543      -4.21348630727908       0.50879151848199
C         5.43237503140719      -0.28677233384577       1.00606211805555
C        -3.21981869554134      -5.41031632309862      -0.39769477235844
C         6.28445532353186      -1.04304517927620       2.02296948023420
H        -0.75633127907598       3.17208799908261      -1.11109218507178
H        -1.41453652219412       1.56647480645237      -1.52281153123514
H        -0.04929273819736       2.32715588862319       2.38974982088265
H         0.09921025356780       3.59751599791722       1.12794100564718
H        -0.72117781309515       0.18518836356910       1.83653522900536
H        -2.27648809635744       0.81524757739929       1.35162325892407
H         0.67411580388779       0.85715383193056      -0.98362636738809
H         1.23255802187427       2.40697254090964      -0.31252673806843
H        -3.22195250523132       3.25788220764068      -1.27397368246333
H        -3.40092311664235       2.00114589383224      -0.04486775908153
H        -2.47884957374126       2.58019965205002       2.47054036921515
H        -1.71026625085380       4.13715812789427       2.68290799953344
H        -3.68484135701785       4.20866863106239       1.05132640314451
H        -2.16654068664636       4.79413473863569       0.34405228875636
H        -2.13862836099231      -0.33870785872743      -0.86130233133786
H        -0.50563462866778      -0.92914868822737      -0.47188509952358
H         1.26399204069770      -0.32795745824507       1.10538040197069
H         1.64474276236040       1.18866369242299       1.92407279384733
H        -3.02358821600471      -1.53492089751941       1.18014769110643
H        -1.40945175929654      -2.14771153100600       1.51085019771540
H         3.50899752177141       1.60801258073624       0.29610874218822
H         3.13041184622020       0.08452249774531      -0.53069795441203
H        -3.02978724920460      -2.71472196762713      -1.04946873304894
H        -1.40038476089954      -3.33324501101787      -0.72141736151398
H         3.93086891169344       0.34537272241713       2.42851479239232
H         3.55414192072692      -1.17252833402346       1.61261060899566
H        -2.26256067208793      -4.50892959906814       1.32460120144344
H        -3.88426547754576      -3.89262739603888       0.99808432045505
H         5.47503635068769      -0.79962059177365       0.02711724152731
H         5.85105442985138       0.72436337992696       0.84676920997791
H        -3.65330981327056      -6.25028138880051       0.16602823457560
H        -2.29089650088609      -5.76754288552288      -0.87145378928017
H        -3.92583541828036      -5.14514992056957      -1.20166159685930
H         6.27095364328737      -0.53398355983441       2.99985906260329
H         5.89893915745116      -2.06370328337049       2.17569204018526
H         7.33240574986741      -1.12276153614397       1.69679203330418
P        -1.60754905769661      -0.14852497453066       5.06871307561396
F        -1.26852347854020       1.09623851989198       3.96633300097455
F        -2.00409441729435      -1.13187508090476       3.76924064016926
F        -1.22984884510430       0.82188057845224       6.36575632662495
C         0.34074335078756      -0.55670158640642       4.83637126181124
C        -3.43497815913598       0.64553072585898       5.14487755951466
C        -2.03077100470623      -1.72491851404534       6.21137185373829
C         1.38806905549313       0.56549888182496       5.16112838916357
C        -4.49185511361014       0.27456133521280       4.06248882890473
C        -1.73676678608063      -1.66691783404351       7.73864968913458
F         0.57397921057115      -0.87096771917601       3.49673816390062
F         0.80697336726069      -1.62378498517316       5.56123595606924
F        -3.31808442872793       2.02387683211898       5.03586964656091
F        -4.04302498936595       0.42424167888698       6.35478983657032
F        -1.36972149835263      -2.83322503228731       5.73058712478604
F        -3.37105057263395      -2.02773271051072       6.10165829120363
F         2.63044543198551       0.11827268994457       4.79788734003146
F         1.42721194691816       0.85283186966826       6.47425946388180
F         1.18602762884396       1.72482598956252       4.47329566901130
F        -5.64821194815780       0.95289383176100       4.29901122617317
F        -4.06710464396551       0.64946243071313       2.81138730776938
F        -4.78354389032459      -1.03811219402068       4.02112487160654
F        -2.03234728669045      -2.87304217123471       8.30260879542710
F        -2.48971459888069      -0.72909362150390       8.35349546631821
F        -0.43255939579796      -1.40437874170076       7.98730815568025
