23
C5H9F6N2P optimized with DFTB in AMS.
N         1.79032860433393       0.17246572921826      -0.36707333347809
N         0.00653587892413      -0.56975405355203       0.57638316625882
C         1.16364970144293      -0.93064079894951       0.02993238940694
C         1.02976887194373       1.26314310050950      -0.04364090871733
C        -0.09740471233069       0.79447131080059       0.55226603013131
C         3.16363877737420       0.22293903655380      -0.84007421132814
C        -0.88907456678868      -1.47158210829515       1.28016320889422
H         1.53637442177976      -1.93666123888103      -0.04946705878442
H         1.35153294872757       2.26771277615742      -0.25508041114269
H        -0.94896560141276       1.31151671794229       0.95831570954670
H         3.48271125980313      -0.78455235236075      -1.09600925811899
H         3.22955346688591       0.87825191905586      -1.70787128618824
H         3.78657880733175       0.60382782684173      -0.02983256857197
H        -0.63900832439251      -1.44542600045861       2.34182087018998
H        -1.91955109420812      -1.15503931931289       1.12631035900000
H        -0.73975370032763      -2.48147325430210       0.90418434826213
P         3.01699912091750      -1.56911268462813       2.71567683448008
F         4.43005697802455      -0.83551086687814       3.05838682992653
F         2.34839931639372      -0.08928705561560       2.30721952996186
F         3.49630580634300      -1.73506638633899       1.10902429805062
F         1.55161201643330      -2.28732322661246       2.28589137722475
F         3.63322014943862      -3.03697372041002       3.04461583902522
F         2.47860940576265      -1.39116731928401       4.24180142517070
