38
C10H19F6N2P optimized with ADF in AMS.
N         1.07201719091224      -1.00162465752040       1.05908513638574
N        -0.44985402263943      -1.24777029875509      -0.47330598542116
C         1.88842802823784      -0.37843042544972       2.11106922293136
C         2.76581801212024       0.73216189030501       1.54744985191192
C        -1.59973184884857      -0.98887192097334      -1.35498279540580
C        -0.08699667839933      -0.51699278305305       0.59045615755133
C         3.61047120962775       1.39978476739043       2.62753190182813
C         1.47007478617098      -2.04605383308046       0.25720164421053
C         0.51547959014004      -2.20158604285259      -0.70242007152432
C        -1.29910981096266       0.06567036431742      -2.41802799124935
C         4.47333086382335       2.51412343786071       2.03986592984473
C        -1.25565902626259       1.48922314986753      -1.87809514583005
H         1.20148454872845      -0.00641325312255       2.88852422843718
H         2.49246194861696      -1.18183632365509       2.56096086571068
H         2.12530597925748       1.47981157670202       1.04996377016551
H         3.40517503506503       0.31898444266140       0.75023219358471
H        -2.44674740505605      -0.69185738698101      -0.71605977448339
H        -1.84963836824101      -1.95531650275362      -1.81609841329102
H        -0.62787555907346       0.32970114244091       0.99048325659631
H         2.95483492106305       1.81147135412684       3.41784766363748
H         4.25653089160517       0.64734785736553       3.11631047231336
H         2.41552086668900      -2.55185358581898       0.39939444275230
H         0.47178921376520      -2.86829826266991      -1.55321065903580
H        -0.34196028308722      -0.18152586633040      -2.90516449921110
H        -2.09321933623776      -0.02581519440126      -3.17943528441958
H         3.84525287423743       3.28066584365122       1.55979901813505
H         5.14756332890074       2.11637601779457       1.26598620691201
H         5.08036327379109       3.00214973681739       2.81589537051172
H        -0.43071894877519       1.61744695868739      -1.16345713188468
H        -2.21055939954071       1.77062274088064      -1.40361217232961
H        -1.05652852460845       2.19294703072539      -2.69896692955133
P         2.85908580215189       0.19767749223086      -2.47016456550526
F         3.55660781012547      -0.84329263616138      -1.36204009015969
F         1.68471748679687       0.56966465369635      -1.32261263168833
F         3.78462131556388       1.42830863803534      -1.88762660000112
F         2.11134488151237       1.21201832114805      -3.52869814331021
F         3.99597212339904      -0.19602928238378      -3.57645396982913
F         1.88871877053085      -1.05928136464238      -2.99729208438911
