25
C5H12F3NO3S optimized with DFTB in AMS.
N         0.40061447700753       0.05864364250448      -0.09612443599497
C        -0.09071098437713      -1.14962828877092       0.61921017282729
C         1.38066148524887       0.77163847700590       0.77132071739585
C        -0.73424785146447       0.96684304675831      -0.39750806929510
C         1.04319464097347      -0.36172549954913      -1.37452178866723
H         0.76474580843834      -1.79555620223096       0.81593787145493
H        -0.55518929716682      -0.84353585056242       1.55473260276420
H        -0.81503029265571      -1.66439393016538      -0.00928794430357
H         1.87658963385428       1.54316720408114       0.18703438477809
H         0.84922396339422       1.21176459805716       1.61335806301074
H         2.11718560610898       0.05510486461878       1.12492048193539
H        -0.35135004829379       1.84548050158817      -0.91344806255994
H        -1.45017677346673       0.44686076258034      -1.03160183307560
H        -1.21268683597084       1.26310347869142       0.53438693456955
H         1.52973197404984       0.49967584980270      -1.82553995014460
H         1.78413393697250      -1.12523788828541      -1.15407740500590
H         0.27586569553157      -0.75909138792372      -2.03680257149451
S         4.09845954265999      -1.28223916162870       0.00972441638980
O         4.99495158519376      -2.13915696338730      -0.71467188340093
O         2.89167609616781      -1.93650042063353       0.52904775242751
O         3.80718255209168       0.00550278010260      -0.61297738397621
C         4.97884177890479      -0.79826599355251       1.56582045510901
F         6.08078540757982      -0.10555026006996       1.32026071451338
F         5.29501916627986      -1.85121601303842       2.30541027442198
F         4.15575055143821      -0.02120903039265       2.28816166182087
