55
C15H25F6N3O4S2 optimized with DFTB in AMS.
N         0.18401553942235       2.40070309277789      -0.37005691217727
N        -1.67048122363594       2.35066870655365       0.71932003253696
C         1.15006640253649       2.20063301961403      -1.44529465532900
C        -3.07447440032428       2.09578006973380       1.03086859002105
C         1.58362039401266       0.73099447294528      -1.49003376986029
C        -3.34655093755726       0.58907252595876       1.00348490556436
C         0.40690160108793      -0.21490082732762      -1.74580986866407
C        -2.49226181670153      -0.18705777863552       2.00789273988325
C        -1.12923236739727       2.21462196466933      -0.48933107812192
C         0.48913502752915       2.64891218014700       0.94031401783600
C        -0.68327876146302       2.61783215203161       1.62871157569198
C         0.86684917433139      -1.67227173009412      -1.83999712272712
C        -2.74875029877128      -1.69334874623589       1.89269876942988
C        -0.32489720869781      -2.60286048839434      -2.05709405746396
C        -1.87490404713132      -2.48219713103118       2.86554665536666
H         2.00769526685123       2.84986023096117      -1.25471507011502
H         0.67792372421741       2.48996474561674      -2.38624858643057
H        -3.68583748482394       2.59481932559717       0.27526108961363
H        -3.28295912030635       2.52271023780130       2.01468198999304
H         2.07755825760591       0.47069335125446      -0.54800035582333
H         2.31514574393081       0.63418534288799      -2.29682922413682
H        -4.40777048291261       0.44187162803283       1.22027808763544
H        -3.15776252704409       0.21823450091671      -0.00711470108151
H        -0.09242439929756       0.07173502159457      -2.67562598871619
H        -0.32003496368619      -0.12275110621506      -0.93061208811337
H        -2.71767507996379       0.15075701248785       3.02552457920153
H        -1.43146720568679       0.01175888437236       1.81743397198995
H        -1.65464343382837       2.01327098891555      -1.41954367346958
H         1.49685527648564       2.83101199239268       1.27032836688377
H        -0.89247615431157       2.76978923652821       2.67299019035387
H         1.38903533901497      -1.95304653702505      -0.91837973303461
H         1.57104545107205      -1.77914305832956      -2.67120983472166
H        -3.80411674535478      -1.89999263615603       2.09711249612203
H        -2.53611298081593      -2.01704788824340       0.86826287777127
H        -0.84938774662197      -2.34108935179224      -2.97642442506575
H        -1.02599053453357      -2.52576554912933      -1.22412897213615
H         0.01509805176111      -3.63584107897206      -2.13092716175430
H        -2.08290567276174      -2.18572982608418       3.89456595993205
H        -0.81807447780699      -2.30511838037172       2.65985587829024
H        -2.07424435829109      -3.54892801977790       2.76415422193297
N        -2.27748814826242       1.61334906661093      -3.20041445815694
S        -1.49003580335642       2.29810587251731      -4.42576489178321
S        -3.82519936333027       2.02382427923928      -3.01257931229846
C        -1.24330504064138       4.10419422091276      -3.96320149420719
C        -4.83053287370558       1.02949922550598      -4.24500294274172
O        -0.14408967063063       1.77335666196818      -4.35547828831793
O        -2.17478440581510       2.28813447487008      -5.68844394095275
O        -4.12368291578258       3.41072171741218      -3.26732764518069
O        -4.20252307989210       1.48147852854400      -1.72094104007355
F        -0.02855955767914       4.48034129872437      -4.33861104807097
F        -1.29851517795625       4.20634692950048      -2.62769905818862
F        -2.12816862602418       4.91060163580356      -4.49756649894387
F        -5.99136892852272       0.71825400307912      -3.69122425768929
F        -4.18636020642346      -0.08736856158022      -4.54198471291854
F        -5.04643365210983       1.72062715011621      -5.34238766768369
