55
C15H20F18NP optimized with DFTB in AMS.
C         2.84909430874866      -0.46208761325166       1.72131746468850
C         2.21606744101749       0.66474155036744       0.90839695551487
H         1.69498614684320      -1.41074249890253      -0.80133128108937
H         0.25906150200475      -1.88389176802860       0.14248475679609
H         2.82475445488743      -2.49705805008513       0.93144747061405
H         1.55591935228567      -2.17195672831048       2.12437005335156
H         2.73948108736581      -0.28752320470510       2.79356925383046
H         3.91321199863113      -0.51912814133048       1.48664151743271
H         2.02347905139135       1.57016995990837       1.48469867840666
H         2.83581512245688       0.91059587226490       0.04816751939572
H        -1.04198143518962      -0.22001757353884       1.11532474545535
C        -0.13511112844183       0.29482846305213       1.42416588602708
H         0.22177727715360      -0.13045918852275       2.35955111607181
H        -0.33688990212673       1.35662504239181       1.55424007805375
C         0.54968306661623       0.85795405755970      -0.87550934462141
H         0.45705802511474       1.90917567803443      -0.58906432120898
H         1.39932255368256       0.75739357695791      -1.55322135808590
H        -1.52237385298838       0.18246304155351      -0.85681895069451
H        -1.62794567356871      -1.82172738694065      -4.07861820638071
C        -0.54413981903767      -0.78826650976923      -2.53150490259632
H         0.33365112845328      -0.61797030604794      -3.15997138273485
H        -0.37681317730214      -1.70834360914768      -1.96592791422135
C        -1.77546037846603      -0.96892590558333      -3.41685994496410
H        -1.94309570070951      -0.08050686084499      -4.02672384594525
N         0.91348003048242       0.12523489156738       0.38664077656387
C         1.19442312949273      -1.32589732786790       0.16101162511740
C         2.12351965448839      -1.74501310861746       1.29434640011684
H        -2.66385893422946      -1.14800857245060      -2.80928428344153
C        -0.73029201427824       0.40020083318609      -1.57853174453392
H        -1.06460034437641       1.26036913024061      -2.16841554377294
P         4.30846001489623      -1.02078369988590      -2.54696685941301
F         4.04671749258992      -1.40195930925452      -0.90783475348469
F         5.93791618350368      -1.31875826559153      -2.43982092069339
F         2.61491203999532      -0.70317720880392      -2.63718277491973
C         4.04494079889226      -2.95253218215017      -2.81685496866969
C         4.65199254802442       0.83839890304415      -1.87515650851374
C         4.41289993883188      -0.41033883566710      -4.44763702836218
C         2.65460831999676      -3.61005136360774      -2.60154382753313
C         5.76957223564487       1.77068760278071      -2.43911670194641
C         3.85584491258851      -1.16715303960621      -5.68841037959665
F         4.86088863877687      -3.59257514573054      -1.96085919691796
F         4.44708580224673      -3.27958618286091      -4.05750581580639
F         4.97043841905062       0.73813441145862      -0.56277823594155
F         3.50876561625475       1.57040158594437      -1.90971791597860
F         5.68844963588201      -0.09448413516530      -4.72741594098240
F         3.71447283808688       0.74918413958993      -4.41646530082786
F         2.68494759731424      -4.89340430834987      -2.94764223518901
F         1.67690039787874      -3.02625120852415      -3.28965344842633
F         2.31272009330217      -3.55290187741424      -1.30376372853064
F         5.96288311356583       2.76391773294396      -1.56070276358799
F         6.92160029756712       1.12972303446062      -2.58088048724947
F         5.44705732492893       2.33143301395250      -3.59597555936320
F         4.74306468537122      -2.01129738671379      -6.19485814919595
F         3.53264141462708      -0.29627486430662      -6.64489093922404
F         2.74796911288134      -1.84289004368129      -5.37428084929158
