37
C11H20F3NO2 optimized with DFTB in AMS.
N         1.01739572252247      -0.15344976836022      -0.12557338687513
C         0.31829723491432       0.27875567931937      -1.38543314931291
C         0.70273132761296      -1.60309931995496       0.13403084379779
C        -1.18413095441312       0.03896916623114      -1.35189910239064
C        -0.79024939131463      -1.90310109215674       0.15801832523190
C         0.59881281524663       0.66057027452664       1.06305733072360
C         2.49469540320720      -0.01990900795123      -0.40117054394375
C        -1.46309817554490      -1.44629322032857      -1.13371665186736
C         0.94116999950411       2.14174842092181       0.99030631358529
C         3.40384030022217      -0.52704988959681       0.70591436429989
H         0.74925735420549      -0.32348247579019      -2.19233887228269
H         0.55194601713937       1.33106547337053      -1.55542923646447
H         1.15569762974491      -1.87151628986619       1.09009644052879
H         1.19000194424579      -2.16801833792704      -0.66472511466137
H        -1.58156955011694       0.35285788398549      -2.32052775116570
H        -1.67103720866817       0.64390081528356      -0.58015839237332
H        -1.27049318058507      -1.43675473651688       1.02477950157492
H        -0.89425680944458      -2.98604273526428       0.26549137710364
H        -0.48084392814890       0.54552091957768       1.17127997262488
H         1.07443116317740       0.21550899120977       1.94017565849455
H         2.68886881458608      -0.60720432786296      -1.30283987939377
H         2.68767341543912       1.03354758324118      -0.61249828110950
H        -2.53959740491610      -1.62301666416810      -1.07676487402614
H        -1.05541896407095      -2.01537595689763      -1.97429792606888
H         0.52802294864781       2.61794790782950       1.87965219652233
H         2.01631300232267       2.31065441392055       0.98467187244699
H         0.50165396205864       2.61716416100675       0.11549418540983
H         4.42490947185314      -0.26117180186510       0.43307873648404
H         3.18062506646773      -0.08055863641797       1.67384388405874
H         3.35014973483738      -1.61146643729366       0.78254918447540
C         2.09995092404659      -2.71670924593547      -2.82895305301079
O         0.99755211489668      -2.19323295327065      -3.01703722599895
O         2.85832801632315      -2.62704605963175      -1.85924725135279
C         2.62391875486854      -3.63150062798902      -4.03045667568815
F         3.62365713198199      -4.44547350845952      -3.66355101020964
F         3.08712142135862      -2.87347552497447      -5.04426575642760
F         1.65016908189244      -4.40680895214448      -4.53534338813906
