42
C10H18F6N2O4S2 optimized with DFTB in AMS.
N         0.31306490410929       0.17995235902109      -0.64662672529584
C        -0.49707509790114       0.04023678248225      -1.90210665416107
C        -0.49164404178225      -0.55804129210538       0.37168170902113
C        -1.94733202168886       0.16361514012284      -1.45222773184919
C        -1.95012309087627      -0.25327835220739       0.02865220226538
C         1.67115822757311      -0.41769259817809      -0.85408471641609
C         0.43262697896476       1.61817843592316      -0.28494057798889
C         2.55055967463805      -0.47512993979827       0.39049798317296
C         3.92467661096294      -1.00477429963634      -0.02297107433481
H        -0.29621225239398      -0.94982778589878      -2.31512318554351
H        -0.17931228243663       0.79244416211006      -2.62324858279145
H        -0.20574004019303      -0.23668067977373       1.37333841079636
H        -0.27373239896295      -1.62194828647889       0.25506398199208
H        -2.58258448972976      -0.48902656711643      -2.05271781371350
H        -2.31031409946588       1.18708030625044      -1.56604590011788
H        -2.33525946340877       0.55148438740137       0.65815920639590
H        -2.56609203028975      -1.13838127122969       0.19599359831065
H         2.15909857841252       0.18844299092733      -1.61954436323390
H         1.52541573192013      -1.42434964183560      -1.25217549752014
H         1.02767624169362       2.11575356999023      -1.04833571189485
H        -0.55910989042808       2.06132780850498      -0.24119491071516
H         0.91625510523481       1.70826461038739       0.68488157655647
H         2.66652914862248       0.51904277400939       0.83026445896988
H         2.10747809650497      -1.13320300108858       1.14443943440716
H         4.57138616796208      -1.08076444858097       0.85015261932309
H         3.83169726403859      -1.98853390632665      -0.48280101944873
H         4.38401803257549      -0.33041946676882      -0.74599968241302
N         3.48759719461026       0.44041237712018      -3.35128427822186
S         2.82763364490810       1.84563520487812      -3.75215824486142
S         2.77420975907880      -0.88479519166138      -3.92140742570735
C         3.93018032565137       2.87086246621747      -2.67209409257809
C         3.34692627526340      -1.11321646724161      -5.68904821743522
O         3.02636616013835       2.26425079884681      -5.11359760959556
O         1.50542100827988       2.06490065130547      -3.17662327716321
O         1.32542459326203      -0.82216779338414      -3.99302356164533
O         3.34270143450691      -1.99144530927858      -3.18882760884617
F         3.67691761818524       4.15620006734182      -2.83573595875142
F         5.20886644843436       2.64498543287986      -2.90548977830331
F         3.66852213906321       2.54999537865124      -1.39982833280852
F         3.29606382799507      -2.39955792662661      -5.99336843164206
F         4.59265162900385      -0.68965109700213      -5.81281261428115
F         2.57037081626368      -0.44310573735348      -6.51560100363237
