65
C19H25F18N2P optimized with ADF in AMS.
N        -0.74452395103001       2.40944560290279      -1.54327737393790
N        -1.98950796993833       1.09385140448314      -2.74289079807220
C         0.34702680941452       2.87163382721868      -0.67531272904509
C        -2.45467561096741      -0.08952860947459      -3.49250855346369
C         0.07592821040450       2.57037860617208       0.79564024877937
C        -2.25226913012983      -1.38431703373506      -2.71400683287104
C        -0.13130401266271       1.08760415350961       1.09352633960214
C        -2.97039588028547      -1.40033724033514      -1.36709019227731
C        -0.80717171852704       1.19964120715232      -2.11947770118144
C        -1.92084691536391       3.08353860799444      -1.79655473963989
C        -2.69898267245577       2.25802130690393      -2.55581994753927
C        -0.25247212170703       0.80229933085936       2.59028546205655
C        -2.93263404305564      -2.77321504137904      -0.69989875956509
C        -0.47246102128375      -0.67895252842245       2.88395569750661
C        -3.69191070211778      -2.79339547510397       0.62478438591899
H         0.46473491103965       3.95010322010259      -0.85716296543123
H         1.26342521715594       2.36978797244914      -1.02206346453516
H        -1.92427667608650      -0.09956114065151      -4.45805916438780
H        -3.52391739524563       0.07826632706350      -3.67663840006951
H        -0.80318801880978       3.14372234797749       1.13254604449538
H         0.94268117182127       2.95175209713958       1.36369893565559
H        -2.64583272983343      -2.19280126871380      -3.35571454349798
H        -1.17434799843438      -1.60090525192347      -2.59200160121111
H         0.71219757060620       0.50001410247465       0.67965636768051
H        -1.05128343992128       0.73395366151791       0.59679833865166
H        -4.01846658696270      -1.09396595611923      -1.50994993582200
H        -2.53435131988521      -0.64710660040275      -0.68875051410832
H        -0.04307375154539       0.43631141934538      -2.06473594824886
H        -2.12754239020802       4.06490083491519      -1.38872444222235
H        -3.71074542636687       2.38168616914702      -2.92055790693950
H        -1.09178157786387       1.39041250509549       2.99869745185266
H         0.66094741334662       1.15650124414584       3.10151994314541
H        -3.37629508604328      -3.51370651223388      -1.39051660749313
H        -1.88255353182988      -3.08326000008145      -0.54078900187667
H         0.37052700015044      -1.28744260539383       2.51731036025440
H        -1.39057203210762      -1.03984270488680       2.39683976458392
H        -0.57444762818871      -0.86036086202362       3.96417081701357
H        -4.72843799844022      -2.45032375616934       0.48482969516920
H        -3.22404334794391      -2.12074200571017       1.35815064456554
H        -3.71422997079074      -3.80509058102897       1.05773711870836
P        -6.06958647457636       1.55369546839682      -0.19830142669903
F        -6.05556402829734      -0.04566167087068       0.27834191304256
F        -4.46543041226830       1.39010760281335      -0.70390233049801
F        -7.64354710532652       1.77300340589824       0.27505334846819
C        -6.72388384421203       0.90469634607988      -1.96079116200147
C        -5.49416069283811       1.94327125921388       1.65998394942488
C        -5.92160177398226       3.45632236708555      -0.83915779769467
C        -7.37226549291769      -0.51784878091644      -2.03303518783193
C        -4.01167281905598       1.66596003575337       2.03974142828558
C        -7.07931686375163       4.48522107273418      -0.65632212172073
F        -5.70636510632778       0.84659398011783      -2.92133950185678
F        -7.68196896578868       1.74929092079521      -2.46027264250497
F        -6.23274233655719       1.15530335566458       2.51421858491289
F        -5.72077803815245       3.24411144234933       2.05105673672001
F        -5.65991041923496       3.46545047839515      -2.20728369969423
F        -4.80931575840517       4.04804800902860      -0.26340560608379
F        -7.93306535518253      -0.68393237399391      -3.26789560833984
F        -8.34234503400936      -0.68463440098684      -1.11529951690945
F        -6.44909349463816      -1.50639628779539      -1.89074184740809
F        -3.83128850976670       1.84474184166181       3.37939983519187
F        -3.63151152257500       0.40120265951470       1.74597553610877
F        -3.15894914283053       2.52192825707679       1.41064521290966
F        -6.66147261629785       5.70341248303745      -1.12352125547389
F        -7.42367640310950       4.64231514211799       0.63688157525771
F        -8.17687020490494       4.13632432474751      -1.35794454280858
