37
C11H24ClN optimized with DFTB in AMS. Optimization did not converge!
N         1.84076967829949       0.44315029174256      -0.00499952884078
C         1.49196423282369      -1.00683590536269       0.12076572953696
C         3.08330674450538       0.43971063602536      -0.84436220648279
C         0.75851032217295       1.22941314019829      -0.69012132354724
C         2.83334146937768      -1.69696243747896       0.31726660594658
C         3.84149329509218      -0.83265090908882      -0.45686245044542
C         2.15217398291354       1.03509548940894       1.32838269444743
C        -0.59062535509076       1.20251955205414       0.03860368062767
C        -1.63239209294216       0.32310799243573      -0.66123693139720
C        -2.86737685279795       0.17201166386620       0.23322703652696
C        -3.93086000742510      -0.71123055699099      -0.42431198017538
C        -5.16105825223353      -0.85085837705581       0.47104521922690
H         1.02381778708926      -1.31625726888999      -0.81576995934348
H         0.80708595371420      -1.15240225888889       0.96725649246911
H         3.64421413362990       1.35526462440535      -0.65411747863192
H         2.78452266202374       0.41542596943259      -1.89487053171144
H         0.66351732527682       0.82073057631879      -1.70004549111480
H         1.13514363664275       2.25284958949255      -0.77084073932147
H         2.79850212172643      -2.71951762547872      -0.06073449543760
H         3.09106450405005      -1.73322307238865       1.37755883348176
H         4.71138863364694      -0.59761948274016       0.15895414029357
H         4.19137693985752      -1.34235036805170      -1.35699422164823
H         1.36957217788136       0.74977649712313       2.03691324585562
H         3.10671004154697       0.64476560762048       1.67309667766052
H         2.20996259486964       2.11703149419201       1.22765972506396
H        -0.47099508435458       0.83943468423113       1.06053609625024
H        -0.96658078136391       2.22788991412951       0.10017124650621
H        -1.20898017294296      -0.66687225664883      -0.86158950611413
H        -1.91270879790897       0.76708554558563      -1.62347348524866
H        -3.28853115962580       1.16197932949512       0.43880717025747
H        -2.56209243401665      -0.26836701240342       1.18731833186920
H        -4.22647817788716      -0.27692336365918      -1.38628435505028
H        -3.50992340804156      -1.70336395584159      -0.62075733969029
H        -5.60922863802929       0.12583399372817       0.65956901327511
H        -5.90466589776146      -1.48773884767179      -0.00901953640135
H        -4.88623936302816      -1.29636012757932       1.42772040116903
Cl       -0.15148127869037      -0.63922657536606       2.83754368043822
