41
C11H21F6N2P optimized with ForceField in AMS.
N        -1.27690805196503       1.29600730716500      -0.22783188378689
N        -2.67407653486386      -0.39571244094111       0.13146961469726
C         1.10680972451407       1.93705409460742      -0.21562091085077
C         1.59612500797853       0.49174256423444      -0.38797241039827
C        -0.26970196094698       2.14703523668500      -0.85850085497070
C         3.01771287298277       0.31351922844715       0.15391964087489
C         3.47206052274406      -1.14399185228578       0.01142208125331
C        -1.81173559536085       0.16842039851296      -0.73577258138142
C        -1.81390244379917       1.44693277993589       0.99956412970846
C        -2.68281985203730       0.39783104929556       1.22183991870818
C        -3.38985559748264      -1.65682282442762      -0.04197432921118
C         4.85715018153884      -1.35520232192825       0.61379733295785
C        -4.85571308075106      -1.39419781670371      -0.36257967479171
H         1.82840654613436       2.63195905490210      -0.69811194512831
H         1.05387946280304       2.19023449270336       0.86593874962912
H         1.57826783675811       0.22168229296101      -1.46669373944510
H         0.91401209503249      -0.19471353956667       0.15993439958008
H        -0.57202450204512       3.21140935460743      -0.75541346087765
H        -0.20726243879973       1.92219980101507      -1.94620514155036
H         3.04231661661365       0.60806336763951       1.22589205115054
H         3.71369937758330       0.97312822175185      -0.40908474397789
H         3.49838508055537      -1.42300112759080      -1.06455613791459
H         2.75282011342861      -1.81528451556983       0.52775774596565
H        -1.55792019393102      -0.24620028057485      -1.70374021058430
H        -1.58125647318133       2.24899933390756       1.68785069056098
H        -3.25831127464625       0.21681859543008       2.12040164668395
H        -2.93666002948091      -2.24000486870333      -0.87314611150829
H        -3.30765525421184      -2.26322751165852       0.88589671054447
H         4.84819936444586      -1.10919518566342       1.69702114103138
H         5.60412526515992      -0.71595226459253       0.09684824175169
H         5.15515392045493      -2.41832261129014       0.49509295756544
H        -5.33822638276628      -0.83662608109930       0.46758714562323
H        -5.38544880743522      -2.36029841101470      -0.50346861870807
H        -4.93863428461398      -0.80020209061577      -1.29753526987270
P         1.68838962747565      -2.46153818586538       3.77720797888558
F         3.15546406218954      -3.14564830877791       3.20342430497632
F         2.25076185235987      -0.92361260148749       3.26323621944342
F         0.96723456327960      -2.82435467718277       2.26167734635113
F         0.20810253778757      -1.71965575603857       4.23216524666092
F         1.17308432908127      -3.97680337108499       4.39955047571994
F         2.35903295711715      -2.16734351283796       5.33050885823438
