26
C8H15ClN2 optimized with ADF in AMS.
H         0.32386015761143       0.80906284974472      -4.49445660153367
H        -0.91872464129351      -0.49655189783473      -4.50029472535732
H         0.79335729878569      -0.92052459553594      -4.79828744811556
C         0.12199250262590      -0.24835067324407      -4.25161739364252
H         2.16740005350825      -0.68318483382040      -0.11640256702715
H         2.29540057277260      -1.34538363783005      -2.80394219363622
H        -1.39615603980819       0.58356286222121      -2.02678830666312
N         0.33896860983147      -0.42064459331638      -2.82580964709408
C        -0.35619508124006       0.30739164673042      -1.90931551123960
N         0.24142096740312       0.11238386734533      -0.70653241546893
C         1.46198602911987      -0.51488398732618      -0.91887458205392
C         1.52488440226959      -0.84018104617808      -2.23569161726006
C        -0.12477801164954       0.85892427997935       0.49054094407738
H         0.61528108370743       1.66677497453846       0.62363692297648
H        -1.08391873077080       1.35231214327443       0.27529957930581
C        -0.22960461060486      -0.03919241205792       1.71303357326967
H         0.74622601520425      -0.51956274405422       1.91065962033465
H        -0.94566756015640      -0.85298223187916       1.49743289972231
C        -0.67004385960716       0.73168057482372       2.95407051021765
H         0.04200489753522       1.55455545808523       3.14587773531554
H        -1.64880576336401       1.20641593020020       2.75847665685651
C        -0.76866636853284      -0.16640167087502       4.18338334026890
H         0.20578725509225      -0.62836072410269       4.41009563230836
H        -1.49375022751415      -0.97922039835532       4.01694857698801
H        -1.09014632053717       0.39920023704574       5.07010060520764
Cl        0.13889085991163       2.61923035202135      -2.47678072525676
