40
C12H25NO2 optimized with DFTB in AMS.
N        -0.61068625049531      -0.37103428391256       0.28032479993403
C        -1.67684915709182      -1.33345107310353      -0.15589831838291
C        -1.39306989416386       0.83475536493622       0.69273866336402
C        -2.84222940671302      -1.11856485650238       0.80101302741853
C        -2.64653174882419       0.29387368538971       1.37651978412851
C         0.30018606874755      -0.06533043722732      -0.87027007401496
C         0.13502558980508      -0.91943680140705       1.46395738244925
C         1.36152106332452       0.98321034840790      -0.55874307664845
C         1.10233056873236      -2.05540032773343       1.12607375869644
C         2.21980135223615       1.20498003965773      -1.80466086734144
C         1.45469064029614      -2.82795945345516       2.39523390558759
H        -1.93898689011390      -1.07875867553937      -1.18658607995812
H        -1.27323223710910      -2.34441655367768      -0.15259554964065
H        -0.78904280546935       1.47144251220779       1.33937678324589
H        -1.65117139038116       1.38155528807675      -0.21684772657932
H        -3.78750704255346      -1.20118052102517       0.26216808394775
H        -2.84393576584439      -1.86301472529088       1.60035784290665
H        -2.51207569288153       0.25857791263971       2.45990537627972
H        -3.49940044706733       0.93997022544224       1.16192140258065
H         0.74879382235021      -1.01618295624883      -1.16889160565291
H        -0.33502995473259       0.26521080932684      -1.69487305463291
H         0.67558993092606      -0.08895829749001       1.92643252399304
H        -0.61914369695891      -1.26854611706160       2.17390424438388
H         0.89402972663528       1.92928387392408      -0.26727618779140
H         2.00329015549605       0.65641207815631       0.26437639401792
H         2.01638091228455      -1.64733269099850       0.68776480443479
H         0.66128280053791      -2.73509281916397       0.39321140061521
H         2.71077490446877       0.27661194075637      -2.09625761847028
H         1.60300767460382       1.54720332261151      -2.63573520634719
H         2.98252267260238       1.95628051762451      -1.60149874727289
H         1.90561870366182      -2.17014261135578       3.14014115592875
H         0.56334389112470      -3.28517517444620       2.82701542329179
H         2.16571136318048      -3.61696316979910       2.15321670270651
C        -0.17018680253837      -3.55642732172659      -3.99890410532180
C        -0.33696483429959      -2.59255905416510      -2.80123015294866
O        -0.95606233066201      -1.52932664663412      -3.00630262247715
O         0.17287370519829      -2.96711620453948      -1.71780518018280
H        -0.58927753386158      -4.52668677742645      -3.73607684631243
H        -0.67255487952164      -3.16080542410893      -4.87928926941289
H         0.89208649187098      -3.68256694501851      -4.20475788492177
