35
C9H17F6N2P optimized with ADF in AMS.
N         0.77264867868057      -0.84400952607180       0.65690074471313
N        -0.85538526306331       0.49248906611890       1.17600185122068
C         2.08095996427138      -1.52233314439826       0.69334937620272
C         2.83291651490438      -1.38633075230903      -0.62572493959570
C         3.12718140212289       0.05986898006906      -1.01080379673053
C         0.36033767682477       0.07060538429836       1.54261385510106
C        -0.20126718172702      -1.00236165873248      -0.30910541133165
C        -1.22331056967274      -0.15858759458263       0.01578401672281
C        -1.61107805111628       1.56852029475685       1.84150992576571
C         3.92669695606405       0.16339028857490      -2.30430317914676
C        -1.62388771722639       2.84107343046555       1.01119322492816
H         2.64453683786281      -1.03920298743672       1.50388416854083
H         1.90048522941739      -2.57790173687341       0.95296728708025
H         2.27840092372466      -1.90015322238025      -1.43365573433085
H         3.77663141984276      -1.94910705792943      -0.50684824017272
H         2.18259945237861       0.62004281708839      -1.10985804857123
H         3.66925878795644       0.55485307913090      -0.18898032154143
H         0.94217862835844       0.46291070326561       2.36992020811298
H        -0.08615185726117      -1.69092536542585      -1.13599036003618
H        -2.62359391152772       1.17887768029942       2.03238494293545
H        -1.11125137744126       1.74622356131503       2.80315501487725
H        -2.16922302487560       0.03019297273773      -0.47566854489684
H         3.38550085575244      -0.28735130551073      -3.15243682844282
H         4.89781849379947      -0.35009183933235      -2.21521449452633
H         4.12571060454662       1.21743742373550      -2.54963228752533
H        -0.59621392643269       3.19326255569480       0.84925347436304
H        -2.17974886057659       3.61686858624034       1.55761461458294
H        -2.11624892465444       2.68620626532063       0.03974518062282
P         2.51028245059894       2.85037773636416       1.97704423948247
F         3.79937414124386       3.05990387322191       0.98925004839610
F         2.96799960516918       1.24350646849975       2.22546683909252
F         3.36976041860700       3.29600905111004       3.28947492984348
F         1.16890051131912       2.55095691067225       2.95561410307609
F         1.98790826202648       4.38158052663663       1.72689791471325
F         1.59625949220294       2.33870310706622       0.66302358147460
