46
C14H12F18NP optimized with ADF in AMS.
N        -0.71336761888261      -0.09143332154985      -0.82701507015616
C         0.52985313661641      -0.35500841010936      -1.59332411825642
C         1.76582216827890      -0.12436909804853      -0.73301922829620
C         3.03557419138966      -0.40288526088960      -1.53287216172389
C        -1.14290692774941       1.18015387072015      -0.68665759564869
C        -1.41005119026940      -1.12095373319016      -0.30425113351015
C        -2.30220742763370       1.45752556056358       0.00861656586437
C        -2.57968036673067      -0.89409491769011       0.39460042284038
C        -3.03688483430322       0.40827572568024       0.55345303655536
H         0.46276557109650      -1.38845818893734      -1.95932023696117
H         0.50136779725335       0.29934641715203      -2.47631321554216
H         1.71673431272254      -0.77857614213376       0.15538044690569
H         1.76806524871410       0.91686962004720      -0.36402757038174
H         3.05710651705647      -1.44401766636408      -1.88959273941924
H         3.92927496939485      -0.23748541344382      -0.91400441391168
H         3.10202624511924       0.25706837759727      -2.41131977663242
H        -0.54494217791334       1.94578929370467      -1.17555325782155
H        -1.02465704824337      -2.11721900490060      -0.50442477612889
H        -2.64072008206139       2.49006569602285       0.08613715558627
H        -3.14091610385639      -1.74727038975576       0.77314879451507
H        -3.97474143408991       0.60414535943227       1.07506684190723
P        -2.80395344196760      -1.29210156608817      -4.30879464207883
F        -1.51909246395036      -1.86873271739369      -5.19411948034912
F        -1.83460680024602      -1.34807330856581      -2.91578253513490
F        -3.79138695609163      -1.20380706934114      -5.63271877447977
C        -2.12622659605409       0.53970034169402      -4.71525776645878
C        -3.29806326671495      -3.20283085345219      -4.07908968577206
C        -4.24656797037205      -0.58709966507973      -3.09338880041610
C        -1.09684430602936       0.70258158571478      -5.87901636024934
C        -2.47357378768164      -4.07621640837569      -3.08249512666339
C        -5.68928230456145      -0.30323910609637      -3.61285412787738
F        -1.46546697820846       1.12722326381280      -3.62745460324200
F        -3.16299661686487       1.37802944723264      -5.03516867636360
F        -3.15183926433591      -3.82695140600708      -5.29682555644671
F        -4.61291511874015      -3.38991329482038      -3.71378353328119
F        -3.83433554413291       0.61764374228168      -2.53664952285544
F        -4.39735390287595      -1.44304123218278      -2.01556446863628
F        -0.89637588882689       2.03653509160595      -6.10833106237094
F        -1.52691950638696       0.15119316807231      -7.02838993295893
F         0.11372072990340       0.17771640591829      -5.55087631244424
F        -2.86787438240573      -5.37374969874517      -3.17432286812658
F        -1.14284449301160      -4.03100289073426      -3.33339246579624
F        -2.66549466945392      -3.69726149467407      -1.78303902013697
F        -6.46409784065696       0.10494324173515      -2.55702178622482
F        -6.27299558451570      -1.39343156655436      -4.14678222915913
F        -5.70025071112682       0.68676090103597      -4.52977400366125
