37
C11H23NO2 optimized with DFTB in AMS.
N        -0.16164167472571       0.11403844406874      -0.45050608292746
C        -0.48396929148207      -0.28494586660550      -1.86681786370845
C        -1.28570317361382      -0.45396920939632       0.38591392043524
C        -2.00005323612923      -0.31384764502580      -1.93111091957330
C        -2.38632984062304      -0.89926777950923      -0.57639166252584
C         1.13449155167422      -0.50866998731915      -0.01885923208855
C        -0.12958949252085       1.60931906268826      -0.36340604985241
C         2.33457707649338      -0.09391271824713      -0.86529655186868
C         0.29021714253232       2.15605897075961       0.99455807353771
C         3.46418023634904      -1.10068816096232      -0.64676041493752
H        -0.05847530646659      -1.28686409080982      -2.02379218749306
H        -0.03273745043605       0.42271157124809      -2.56201881636636
H        -1.62688743905928       0.30557371561409       1.08968689817719
H        -0.89443247241222      -1.31353048046043       0.93123300021618
H        -2.33882755238530      -0.93959969378270      -2.75740301248270
H        -2.41217611204124       0.69183413603144      -2.06209641619416
H        -3.36861399091937      -0.56045167768398      -0.24369011641953
H        -2.37801587486415      -1.99107257897620      -0.63126816705133
H         0.97906106503621      -1.58659962835460      -0.11381526992250
H         1.28869256515347      -0.26278133511150       1.03373770136823
H         0.56542777776363       1.96489414257062      -1.12802281682407
H        -1.13246571499344       1.96330176683774      -0.61541011825974
H         2.06701681925130      -0.10311730500448      -1.92404561339576
H         2.66879138699824       0.91571339646437      -0.60351415123441
H        -0.29831366440037       1.73053501996823       1.80549837205825
H         1.34483324250554       1.96957505323273       1.18929675657497
H         0.13112481276037       3.23428454563116       0.98527804159917
H         3.74042571126606      -1.15008876450153       0.40721005455757
H         3.13401161599260      -2.08650093698683      -0.97647265046498
H         4.33889640213152      -0.80746892380680      -1.22674833207249
C         0.23888632756359      -5.10704648702814      -1.45231467177882
C         0.26826743695927      -3.59085499952878      -1.16088023591672
O         1.03551799006467      -2.89673258631358      -1.86609891198303
O        -0.46972321516293      -3.17084031301387      -0.24220164804024
H         0.21744691811073      -5.27268748190852      -2.52811153510702
H         1.14833021532262      -5.55227244083987      -1.04965343289948
H        -0.62761889859313      -5.56768992673801      -0.98196319813589
