28
C8H18ClN optimized with DFTB in AMS.
N        -0.15287435288608       0.35213885108665      -0.06552445985566
C        -0.98013407316510       0.58503970551256      -1.29656379243222
C        -0.68302844008576      -0.93511755423568       0.50815672687990
C        -2.37381831211226       0.11671435658188      -0.91471457266245
C        -2.11127478413766      -1.09636520609419      -0.01789298144020
C         1.29124728845360       0.24471008379632      -0.45753097454628
C        -0.35550653037409       1.46730458610376       0.89261893720857
C         2.22793392245106      -0.06260979750458       0.70755702338408
C         3.61446116017507      -0.40230723009765       0.16008666636236
H        -0.57357425031356      -0.06299107959151      -2.07961872851004
H        -0.91736494764468       1.63369028214006      -1.58859722651837
H        -0.62628389280542      -0.89209024991545       1.59658257910626
H        -0.05562658397137      -1.74422505160479       0.12842881463699
H        -2.94045328865124      -0.15704885248567      -1.80551883017511
H        -2.92526532948145       0.89536464635400      -0.37983209535854
H        -2.83529139151290      -1.15854201793010       0.79630666544608
H        -2.16373554511399      -2.01300376124284      -0.61022964238287
H         1.56475183223311       1.19015957045299      -0.93376876938504
H         1.33961449647973      -0.56155870694438      -1.19903219905623
H         0.01616418059190       2.38960810786010       0.44818162241073
H        -1.41673200260789       1.56371298553120       1.11168708052761
H         0.18528131933074       1.25706148634729       1.81281213786931
H         2.30480719655801       0.79559073994792       1.38302816763460
H         1.84979718551070      -0.91380347084194       1.27987639144158
H         4.29109315222964      -0.62661735018670       0.98420902338070
H         3.56004997706307      -1.27144823492825      -0.49527423245194
H         4.01837225841960       0.43794674008240      -0.40566800032710
Cl        0.21462583016722      -2.25049981189339      -2.18966301708672
