34
C10H16F6NP optimized with DFTB in AMS.
N         0.19553770717915       0.74612390175188      -1.26542375772300
C        -1.70339512252080       0.69801951834540       0.31738834697223
C        -3.18228663761514       1.09138641142645       0.35212168915775
C        -0.95248736301272       1.50818265824172      -0.74917744961584
C        -3.95837891571457       0.17031969036440       1.29902549724169
C        -5.43354261256858       0.55942940863748       1.36174083237717
C         0.24835403613368       0.43376970405670      -2.56716499030723
C         1.10676719866409       0.26579875500602      -0.40241557726657
C         1.23656848781889      -0.40113232912129      -3.05172661384988
C         2.11657916807637      -0.56280448597805      -0.83796970299056
C         2.18095142682544      -0.91883734157348      -2.18043632115878
H        -1.62816786351574      -0.36234581452769       0.07183110480140
H        -1.24509692267932       0.85636280774953       1.29813539211325
H        -3.59755695680661       0.99770762860569      -0.65623895671193
H        -3.28543023124039       2.13545995536152       0.66868653402612
H        -1.60958975496364       1.70897312991447      -1.59747015559770
H        -0.58211681488751       2.45604727153102      -0.34784030783469
H        -3.52209763791805       0.22286799149021       2.30267311205657
H        -3.86692243726648      -0.86048291573527       0.94362290775129
H        -5.54925920806023       1.57084408843057       1.75526775450402
H        -5.97258897342374      -0.13013196091826       2.01155294299598
H        -5.88094621901697       0.52066862231300       0.36772735527088
H        -0.52555019169243       0.83680918860481      -3.20681486657326
H         0.99757600144396       0.54877606377047       0.63696459349519
H         1.22686169613839      -0.67294890605831      -4.09875531512907
H         2.83092096530466      -0.94816256245946      -0.12181219862362
H         2.94619241501000      -1.59910717899968      -2.53318003130655
P        -1.89082923307133      -2.21233913232747      -2.17417231611891
F        -1.61879313483451      -3.80553409331165      -2.01032556495186
F        -2.89424413871323      -2.19690892505658      -0.87191154590916
F        -0.60030688586221      -1.88773949743431      -1.14666630093885
F        -2.12273527090111      -0.54223559154099      -2.32744978435009
F        -0.83293714134058      -2.13054498316682      -3.45286362571677
F        -3.13524385786871      -2.46674155129203      -3.18604684468919
