43
C13H28ClN optimized with ForceField in AMS.
N        -0.69368479760056       0.53168950163430      -0.20350339753260
C        -1.65966450508954       0.29114337323008      -1.32542658954364
C        -1.24343522138847       1.61533600291137       0.67683373491137
C         0.57958854862277       1.02583829681187      -0.83495900453155
C        -0.46211557827685      -0.71151907546738       0.61463283355834
C        -3.08706802750462      -0.04707479166321      -0.86417931170106
C        -2.67444541368704       1.34609846088580       1.18674190644220
C        -3.63405916402975       1.05694910157158       0.03537736034818
C         1.76915875579967       1.25443286770998       0.13084251480482
C         0.20216289231143      -1.89395696764609      -0.13334413549226
C         2.98998555540551       1.78070257398207      -0.63526716759510
C         0.40970025875073      -3.08345335597288       0.81340059473871
C         4.18108047236202       1.99240767661271       0.29509338922497
C         1.06713696592721      -4.25739137518250       0.09235711188084
H        -1.30524522917903      -0.50930689527923      -2.00768165955385
H        -1.73651710782283       1.20201258172016      -1.96514967349045
H        -1.26176352736882       2.58862784320924       0.13396916877042
H        -0.60471853364329       1.76490725034708       1.57379614497257
H         0.39185242216812       1.98942210608818      -1.36412902851647
H         0.91230452497558       0.32841560596853      -1.63600864824755
H        -1.41212252360630      -1.09211998452450       1.03789413331997
H         0.15300042529774      -0.47236233599040       1.51001750098228
H        -3.12286273615785      -1.02767240193086      -0.34652442934576
H        -3.74098874771544      -0.13451957434022      -1.75898689867722
H        -3.03478744646519       2.24515459201911       1.73279047588806
H        -2.68529539057772       0.50754114903770       1.91375490341994
H        -3.78427178809956       1.98272627338945      -0.56302671979669
H        -4.62040594309858       0.74716551536125       0.44335085970136
H         2.06031839477163       0.30573662581844       0.62674088689230
H         1.50027769431013       1.99818786607898       0.90825507024762
H         1.19259968625686      -1.60048527759834      -0.53670123628255
H        -0.44137794931675      -2.23187762692316      -0.97072894950719
H         2.73794988683928       2.74838291448833      -1.12036207933596
H         3.27836096077718       1.05504723585760      -1.42719491465164
H        -0.57112949084238      -3.41537309118197       1.21897131788699
H         1.05667591914485      -2.77743343691830       1.66451955226992
H         4.47925423779104       1.03134668434050       0.76609403518806
H         3.92570397400182       2.72683219203809       1.08830699371064
H         5.04133178258870       2.38438657121741      -0.28728487287108
H         2.06784852913454      -3.96334795576306      -0.29025700303729
H         0.43379131647380      -4.59364740656502      -0.75634260740959
H         1.19232418852277      -5.10455608540373       0.79927331557899
Cl        3.26650187163717       5.29588179442101      -2.72241021401902
