54
C14H26F6N2O4S2 optimized with ForceField in AMS.
N        -0.71151170318200       0.31647950277238      -0.15719674861539
C        -1.27837466618381      -0.44579444451898      -1.31696529598919
C        -1.83938038154388       0.72665319189460       0.74268560126099
C         0.27878408289753      -0.50381272412088       0.62517578763770
C        -0.07862127255411       1.55442042420422      -0.73059624630782
C        -2.13183544520202      -1.65912764209091      -0.91537993151910
C        -2.73258894967704      -0.44463415346940       1.20154001209351
C        -3.26731835506966      -1.23524695705244       0.01111423432878
C         1.55679640682091      -0.92858530266350      -0.13745660322430
C         0.65900423498815       2.46690462604221       0.27969330813934
C         2.48164871331864      -1.73910900745637       0.78048767500360
C         1.22380512472985       3.70063612240393      -0.42121209748028
C         3.75945356768436      -2.15422356590771       0.05760354938217
H        -0.48282260477591      -0.78288076456242      -2.01352267045196
H        -1.93451925323668       0.21939411599165      -1.92644491442090
H        -2.49749571139490       1.46681022973186       0.23146530535148
H        -1.45763866556550       1.22074705682846       1.66188620718958
H        -0.18849728551121      -1.43334943142205       1.00361703586792
H         0.58467887842786       0.04246242664426       1.54449355198529
H        -0.85506572107585       2.17695362416754      -1.23379345809558
H         0.63615494652321       1.28506480600596      -1.54021456655932
H        -1.51277648485386      -2.44969103649041      -0.44296302254815
H        -2.57256492573654      -2.09991834182428      -1.83466735680300
H        -3.59349659270624      -0.03732857293816       1.77461000206271
H        -2.18411689313492      -1.11773291513702       1.89271901475427
H        -3.99178593765365      -0.60752004023794      -0.55320933679312
H        -3.80461740733241      -2.13741066236805       0.37503742711542
H         2.11660096599803      -0.04042633238026      -0.49428400529695
H         1.29575938386935      -1.56425688229457      -1.00764663645282
H        -0.02950575162040       2.81586651613384       1.07519208863316
H         1.50936550729120       1.93380038934025       0.75092147410996
H         1.95473355722588      -2.65377914936135       1.13047381940124
H         2.75617412771344      -1.13018718267369       1.66945648961338
H         1.75721993023893       4.33762027447257       0.31556977908472
H         1.94144177253234       3.39982946102648      -1.21426152679075
H         0.40385209790181       4.29630540634649      -0.87626027386484
H         4.32373719952217      -1.25672753854292      -0.27344000260010
H         3.51820832803149      -2.78175722293303      -0.82607988519243
H         4.40018810956898      -2.74313221975555       0.74720396272246
N         0.24814187605784      -5.79529679263736      -2.97804011296940
S         0.71574935647102      -5.90990659729598      -1.41082961317209
S        -1.14978725710055      -6.44478505145064      -3.53737786577650
C         1.74297654290208      -7.35193268191804      -1.21174057446838
C        -2.38845295486816      -5.16949674493292      -3.62410988247020
O         1.51379277937975      -4.69194100033626      -1.04257558920753
O        -0.48117081516162      -6.01712568679570      -0.50682570139301
O        -1.62762641679379      -7.54585405732219      -2.63137258133303
O        -0.92338428723023      -6.99322938296810      -4.91770112247655
F         2.16724142506967      -7.44245684932600       0.10038730414383
F         2.84345989497741      -7.25322943331935      -2.04195008922383
F         1.02418494228985      -8.48561444012851      -1.53912389328649
F        -3.57237063428190      -5.70202187091839      -4.09787346639506
F        -1.96312161696721      -4.16809494227966      -4.47656818911957
F        -2.59635953391770      -4.64300336727572      -2.36466603028388
