31
C7H16F6NP optimized with ForceField in AMS.
N         0.16505984063960       0.27294937397683      -0.06901048009622
C        -0.45387576527171      -1.02419177866908      -0.45422051438924
C        -0.92076717736838       1.05446879989418       0.59718554510111
C        -1.95761666444126      -0.83798331782930      -0.44042949483475
C        -2.17778433579529       0.19811567888391       0.62893224828522
C         1.29725151309158       0.07792082105310       0.88807246177253
C         0.62422034698972       1.00233237205480      -1.28025281319322
C         2.47121559812860      -0.74875487799210       0.33482371698791
H        -0.21565994257917      -1.82630071089926       0.28196255608932
H        -0.11924426800423      -1.38758187476203      -1.45247754307099
H        -1.15820797161713       2.00123435603090       0.05754539021719
H        -0.66482646076056       1.36141495766147       1.63770630201773
H        -2.49033421877722      -1.78559596684930      -0.20714758364916
H        -2.29989697684008      -0.44617499143142      -1.42337474518123
H        -3.09410281387387       0.79635367119999       0.43230393395166
H        -2.26687154730980      -0.30185598962630       1.61919293476708
H         1.69874997811881       1.06542651704098       1.21070661308839
H         0.93113988271081      -0.43115316944976       1.80936368159512
H         1.34754375242777       0.40268241176023      -1.87266256047711
H        -0.23088011145551       1.22807813464875      -1.95693995823968
H         1.10994335840350       1.96425530698727      -1.00271518941239
H         3.19573879403338      -0.94131015076464       1.15432961211430
H         2.13315327516167      -1.72798254832628      -0.06000536174934
H         3.00969598807585      -0.19362530061503      -0.45817754487241
P         5.97792432386807       0.35484519821714      -2.54626984375670
F         5.27984322064033      -1.14248744573196      -2.07352070665256
F         7.09180306347803      -0.38557603166128      -3.62502155515023
F         4.77760659197077       0.39958971740107      -3.77491900417945
F         6.65711930394563       1.85232269714115      -3.04460133629714
F         4.97366143472579       1.27938330661213      -1.50325112145032
F         7.09769344458428       0.14590921154385      -1.25989728943542
