35
C11H20N2O2 optimized with DFTB in AMS.
N         1.47494418931797      -0.64300617600295      -0.32770801350439
N        -0.58652776429436      -0.22495526335281      -0.77621939181721
C         2.68478380104384      -1.11012029733794       0.33972082235893
C        -2.03520759533581      -0.15114438320374      -0.66177568816965
C         0.22610419799092      -0.90123850724654       0.04451580735012
C         3.60771881098833      -1.83173045853976      -0.64000788528550
C        -2.44925425020619       1.15888463862182       0.01791446117568
C         1.47924347283078       0.21917189709436      -1.38793344726523
C         0.17680990464738       0.48705177789388      -1.66954016046052
C         2.93653812436043      -3.04175664174885      -1.28571829307998
C        -1.92944852886044       1.25603673992763       1.44998297483497
H         2.38557190505524      -1.75808525467838       1.16861261627585
H         3.18287728029806      -0.20737045372769       0.71996494213440
H        -2.37639337084598      -1.01450498148354      -0.08353657025292
H        -2.45941732695761      -0.20558857359781      -1.66823976954534
H        -0.08398783347289      -1.54465167988574       0.84958034668034
H         3.93325752095075      -1.12462197097607      -1.40850517189003
H         4.49171857038150      -2.15309117243998      -0.08229518564511
H        -2.07153638021443       2.00050148857506      -0.56952843466969
H        -3.54193163432494       1.20561255027905       0.01565170821703
H         2.44611214093557       0.58316960188434      -1.79873759197203
H        -0.27016695582966       1.11155779804793      -2.42237579282080
H         2.06469879626657      -2.73282618184607      -1.86470095779349
H         2.61278540383866      -3.75682709063500      -0.52674432784357
H         3.63762685223662      -3.53892191220076      -1.95540028315851
H        -0.83955038030092       1.23987737578317       1.46411828680473
H        -2.30000112448995       0.42410920443871       2.05044777796854
H        -2.26684463099449       2.18862054829698       1.90048898474716
C         5.31846973161606       2.80578709677317      -0.92026722970344
C         4.17053019436182       1.77046645644058      -0.93876010982760
O         3.43835203863294       1.71284896847004       0.06758490127081
O         4.05684313829898       1.07715619499960      -1.97996878223363
H         4.91241965453968       3.77060018986764      -1.22416179668997
H         5.72076138106759       2.89626647038105       0.08712169405390
H         6.10196092996800       2.51370111632862      -1.61673800254388
