43
C13H24F3NO2 optimized with DFTB in AMS.
N        -0.58014387907548      -0.04972035081030      -0.36953874054816
C        -0.61294368135754      -1.19639799696824      -1.33806514657192
C        -1.86029448508658      -0.20866899119471       0.39179716528797
C         0.58663698236191      -0.16555435146291       0.56755091117520
C        -2.06754683232635      -1.30778444073452      -1.77509486278185
C        -2.88823805945455      -0.69242027640602      -0.62999717053281
C        -0.57737854951125       1.24621247525317      -1.13784770433502
C         1.94816899707482      -0.09687419540565      -0.11841248805765
C        -0.42290074057515       2.48975112366236      -0.27772290045601
C         3.05692248177683      -0.21343287868820       0.93201470070452
C         4.43760868774747      -0.14928312866944       0.27010673506980
C         5.55381912363260      -0.23396181655073       1.30859853624772
H         0.07654428976038      -0.99377342139100      -2.16056304521172
H        -0.28974521247108      -2.09156417820484      -0.80323570592229
H        -1.69457633301500      -0.96391218801297       1.16344981821779
H        -2.12991474810678       0.73345373933527       0.86817247537401
H         0.48176629360497       0.62823977836995       1.31201289024960
H         0.47957069656095      -1.12717965646311       1.07817930272525
H        -2.23537355337420      -0.76307623652998      -2.70625044119584
H        -2.33164566377276      -2.35311970919011      -1.94242207259778
H        -3.55189868615730      -1.42689949128776      -0.17025061734753
H        -3.49970075816518       0.13751630870034      -0.98981523160086
H        -1.52162467937254       1.28580811953317      -1.68413947885706
H         0.23815935549763       1.18967061295127      -1.86296810356349
H         2.05783562130828       0.84154664382710      -0.66438596113374
H         2.04185176451563      -0.90941588333376      -0.84035954746698
H        -1.16567469890696       2.54137618142484       0.51805813946779
H         0.57143836844547       2.55368850581574       0.16074447312312
H        -0.55981488180498       3.35359573014276      -0.92814098196999
H         2.95147896496043      -1.16107892907439       1.47223146998498
H         2.95828404272873       0.59934214501049       1.66151522113424
H         4.53665705014935      -0.97455907177239      -0.43983622075456
H         4.52812340296208       0.78746278602089      -0.28893766018751
H         6.52392795221881      -0.18935764016402       0.81389972544015
H         5.48544229810004       0.59434810175632       2.01615279577968
H         5.48988574390434      -1.17079350578549       1.86442105263502
C         2.26414865944496      -0.37046368665820      -3.83008096571337
O         1.48489402466599       0.14547668909468      -3.01224289421055
O         2.76023506444449       0.00795155050263      -4.86348721898129
C         2.67940270559375      -1.88487362404586      -3.35461692425067
F         3.13005054906655      -2.69263953915117      -4.31656036259403
F         1.61360036906175      -2.51861895789366      -2.78251223616951
F         3.62905207534546      -1.85219548815157      -2.38636558840461
