40
C12H22F3NO2 optimized with DFTB in AMS.
N         0.06322033510616      -0.72231886831297      -0.27801771187125
C        -0.34930917198830      -1.43393308645745      -1.53697729386874
C        -1.16748579912256      -0.79062077006428       0.57551913952794
C        -1.82067446858769      -1.09501887202463      -1.74918933336617
C        -2.34520696572851      -0.63730695780318      -0.38062434871633
C         0.41402337706085       0.69493522585772      -0.61722667591494
C         1.18483884185087      -1.44373842332958       0.41188556966889
C         0.92485397588214       1.53569365380190       0.55267164751144
C         2.45464065419631      -1.55768280344491      -0.42660378711652
C         1.08360583237964       2.98798400144996       0.10292817311650
C         3.41278686331033      -2.53749974140785       0.25076048248758
H         0.28588584869111      -1.11447453116984      -2.36266711788896
H        -0.20330227198504      -2.50452832914995      -1.36313904629101
H        -1.17972882715929      -1.77617588236490       1.04232364079220
H        -1.12848531623289      -0.02508513368894       1.34955298264076
H        -1.94187869488881      -0.30555336217196      -2.49440704213951
H        -2.35023143733106      -1.98277418726555      -2.09799883293771
H        -3.17605005430719      -1.25923904775995      -0.04442005457504
H        -2.68761213426532       0.39950662899220      -0.41909738054391
H         1.17642061208666       0.65834429802953      -1.39916350211098
H        -0.48549346556670       1.15122370138891      -1.03804022375219
H         1.37603436953576      -0.92989942504863       1.35654019024486
H         0.81316903969619      -2.44838673568273       0.62631618479073
H         0.22854802952215       1.49432003882921       1.39406010937723
H         1.89284756086004       1.16081750343038       0.89365390406062
H         2.93435024700592      -0.58103194264118      -0.54538809908483
H         2.20698727634366      -1.94866690134220      -1.41573936488823
H         1.79424372147597       3.05776118243497      -0.72103871107933
H         0.12690015530455       3.39559212601149      -0.22519162883414
H         1.45236978610294       3.58986738688093       0.93257148784105
H         3.63501573763465      -2.22206928333241       1.27098867198210
H         2.96100423626715      -3.52959165853218       0.27279604837590
H         4.34330288846903      -2.58827064876724      -0.31343397814059
C         0.10882225920495      -5.11976775530017      -0.51257234830398
O         0.81664165114139      -4.11755038216518      -0.67320211856529
O         0.32721038128525      -6.28327161035244      -0.28244633961088
C        -1.48736914139967      -4.71188890565433      -0.62834251501566
F        -2.37404110818602      -5.66850087776751      -0.35815215377129
F        -1.79527088844211      -4.22271506616961      -1.85848973473149
F        -1.76499725442249      -3.67508502863541       0.22744913570113
