51
C13H24F6N2O4S2 optimized with DFTB in AMS.
N         0.27581613685690      -0.99218143596317       0.32689896744347
C         0.15664483987095      -2.24711606899706      -0.48951897398917
C        -0.44613749878798      -1.33336892365419       1.59744815139676
C         1.71353032743191      -0.68294948812189       0.63284625076744
C        -1.21420567376027      -2.82981803474323      -0.16908771916056
C        -1.60615353486744      -2.23842480888434       1.19181428940051
C        -0.41950821184273       0.12326807482676      -0.39590214489531
C         2.57272994758457      -0.44115415214850      -0.60421969284463
C        -0.28274089209971       1.49877941239336       0.25594880912243
C         3.98688988547291      -0.03550374040725      -0.16740036834620
C        -1.18736378090043       2.49597373653483      -0.46787562873888
C         4.94354690978778      -0.03123241777755      -1.35685397242528
H         0.29650033637271      -2.01525137223040      -1.54508954595560
H         0.94832903489413      -2.92068605299621      -0.16131109219665
H         0.25311586311129      -1.87595533301375       2.23555035775829
H        -0.76087595397856      -0.42054627355116       2.10175640092538
H         2.10408972071327      -1.54731686018637       1.17868967091827
H         1.72557699268110       0.18309585568459       1.29844108903101
H        -1.94515143352027      -2.56269664929411      -0.93552266815005
H        -1.14126520274291      -3.91769957987283      -0.12320310671035
H        -1.72939065880856      -3.02196462488430       1.94067852939333
H        -2.53920526501045      -1.67489966672109       1.12064765265797
H        -0.01513626272556       0.15742553291099      -1.41020375410826
H        -1.47415719302549      -0.15574968603392      -0.45934622059570
H         2.62777943164766      -1.35883567418280      -1.19517074414721
H         2.14694508563663       0.34545544329935      -1.23369085264100
H        -0.56461216257047       1.45754219046959       1.31110323103711
H         0.75159582030639       1.84559117725652       0.19352518166198
H         3.95396393074717       0.95726769854861       0.29430974629671
H         4.35126488790022      -0.74678564834535       0.57844115333629
H        -0.91756888609471       2.56169081038597      -1.52227019823543
H        -2.23185586440981       2.19212806378928      -0.39233485426451
H        -1.07793650794527       3.48213977174698      -0.01838627785392
H         5.93134644961819       0.29589496556835      -1.03361458600901
H         5.02860454807064      -1.03640966130600      -1.77051185089616
H         4.58908409890533       0.64320555335993      -2.13795346927383
N         2.54341835367734      -3.70066097376730       1.23649582633336
S         3.81265833746945      -4.21637534906575       0.38834322596851
S         1.38575917271415      -4.75782730433051       1.59689867195498
C         3.27548227837103      -4.61193690097453      -1.36684613487583
C         2.03778964884954      -6.18512103239306       2.63020943449511
O         4.64629740282647      -3.05421736384256       0.20322614022645
O         4.40472822680147      -5.43017585185282       0.88217449381251
O         0.77519307646937      -5.36461824200958       0.43049876730115
O         0.49352183679915      -4.05083700321027       2.49629622030725
F         4.33299220613801      -4.54821692044030      -2.15741939727253
F         2.40162009737449      -3.67909606060138      -1.77313627023700
F         2.71708976956968      -5.79554704231418      -1.48638305154002
F         1.03764821846329      -6.62116820536153       3.37924954507657
F         3.01234457251048      -5.77000730160561       3.41601026276729
F         2.46010275574696      -7.16632022589027       1.86454512897298
