58
C16H22F18NP optimized with ADF in AMS.
N         1.34556407508574       0.58142052201812      -0.73072348498372
C         0.88161000275017       1.89296179970815      -1.35118251426117
C         0.64380024146755      -0.55682263376857      -1.45013284839364
C         2.85129234200747       0.47025383304202      -0.96390593123413
C        -0.62459465529513       2.06417359753059      -1.32719302728694
C        -0.87264670673470      -0.42735617519645      -1.46221489047296
C         1.02014981474642       0.52293128077052       0.74917889365492
C        -1.31867125174936       0.91070672892169      -2.04852184661696
C         3.51404021366599      -0.74167469489333      -0.32872140248476
C         1.70930209054843       1.57718128009509       1.59107924864588
C         4.99091027596445      -0.81016773185806      -0.72755225443019
H         1.25412428305251       1.87543529484517      -2.38516925495147
H         1.41408739304588       2.70348745610823      -0.84222503335608
H         0.96313395230182      -1.49171271329666      -0.97164011566922
H         1.03774337235265      -0.53603177027704      -2.47846448175161
H         3.29476958336298       1.40795509355071      -0.60542714899868
H         2.98345837674344       0.47425117978971      -2.05559723623636
H        -0.83662041130181       3.02099905128113      -1.83011985664034
H        -1.00071806908415       2.16615010497592      -0.29470751399597
H        -1.28319053911409      -0.56363740171848      -0.44744418434476
H        -1.25864529839106      -1.26738948186884      -2.06316183208899
H        -0.06848199588017       0.61742236775311       0.83380346480641
H         1.29098420548288      -0.49065401568894       1.07799719900652
H        -2.41327685332740       1.01094865747479      -1.98479480388865
H        -1.05068066541550       0.94788330743716      -3.12002390157792
H         3.44205387703887      -0.68944519067876       0.77040713852116
H         3.01663296847664      -1.67393457562992      -0.64429330625880
H         1.39015159379863       1.43449578230813       2.63448185537394
H         2.80342132654314       1.49523016323591       1.56265014058972
H         1.43311408500222       2.59861626924020       1.29794840654173
H         5.46862885749594      -1.67733659708600      -0.24927442977293
H         5.10551495132434      -0.90654793213925      -1.81657333377734
H         5.53004497084333       0.09831158026541      -0.42620527124336
P         4.42439884782060       4.12635153217750      -3.12350268861089
F         4.28297080370861       3.24143433600114      -4.52920142012350
F         5.62767608799537       5.04856693242407      -3.78160304230665
F         3.20978564428993       3.20601617384623      -2.35773300352702
C         2.99658055095687       5.24842879953104      -3.94664308728877
C         5.66698900592349       2.67442883556844      -2.54250533828395
C         4.67627755816414       5.23280159338400      -1.46131541109657
C         1.59564595175240       4.58425255159306      -4.20054620059761
C         7.15076156651479       2.71296305206964      -2.99798616705015
C         3.69806860101196       5.08645770753915      -0.26169339881345
F         3.43815547174709       5.65552210091848      -5.18265488193230
F         2.66397886972785       6.39285253309099      -3.25123308784212
F         5.18568429573516       1.46827350106878      -3.03762411798116
F         5.68625672691914       2.50361168433819      -1.16731944763674
F         4.66240115249585       6.56980523548164      -1.77884123596167
F         5.92669911061966       4.99926593373959      -0.92562477775788
F         0.86185627658077       5.38346424753778      -5.02213498615418
F         0.89130982253367       4.46892579133797      -3.03407050337115
F         1.64452874175597       3.35659512760701      -4.76856230845246
F         7.78162022899684       1.56891035629045      -2.58084408914353
F         7.24204807450439       2.76214273298825      -4.34476514200955
F         7.82093903045306       3.75799400694210      -2.47010087948604
F         4.02284833560245       5.96714710106666       0.72144451254671
F         3.74936507379362       3.83796047532137       0.29306535736448
F         2.40909779238822       5.32274089608506      -0.61507265720716
