44
C12H26BF4N optimized with ADF in AMS.
N         1.30895595323248      -0.31828342995152      -0.09044659608990
C         2.33821160672101      -0.02765090457002      -1.17732112079638
C         2.08863324926540      -1.18779979860475       0.88521229417854
C         0.86546589406507       0.95220738007697       0.60304569438270
C         0.15311176592815      -1.07475116040705      -0.69981389990478
C         3.17621296199735      -1.29974950813846      -1.30630293197714
C         2.98467391473274      -2.07153986429246       0.02333851360909
C         0.16978730786252       1.95157876267322      -0.30464296589789
C        -0.99213676333996      -1.38626717023405       0.24783544593341
C         0.15691087320817       3.33049190524767       0.36192274545279
C        -2.03002571820691      -2.27830751676488      -0.43695410713203
C        -0.54075214956481       4.38058363202650      -0.49610336678939
C        -3.20547106914243      -2.59604019709681       0.48193850537002
H         2.94145517028923       0.81491360523363      -0.81034701842735
H         1.80615375291453       0.25348180642198      -2.09496464640263
H         1.37880812761389      -1.72987870698321       1.52168271931317
H         2.68357483866237      -0.49270917417897       1.49552384102398
H         0.22517200968847       0.64702043496189       1.44377347224518
H         1.78408008061814       1.38864248185941       1.01827434218496
H        -0.20760954970022      -0.46458700791840      -1.54125991912388
H         0.57673517535051      -2.00220388127637      -1.11472276574259
H         2.86395033595065      -1.90864362567652      -2.16758017399966
H         4.22666860612842      -1.01232617939996      -1.44655547363523
H         3.94328420830651      -2.21548588574700       0.54043533247794
H         2.53735830058986      -3.06184697137570      -0.15272127394414
H         0.71482629839708       2.04062242447795      -1.25902480208288
H        -0.86325044171967       1.63700998064482      -0.53951268738606
H        -0.62583702243612      -1.89571872521371       1.15433152228334
H        -1.48090731614934      -0.45413750410615       0.57517688882181
H         1.20220646175441       3.62825868643197       0.55190187169557
H        -0.33801558853773       3.26076247587679       1.34729220041378
H        -2.39585208056135      -1.77889758722664      -1.35188916789570
H        -1.54717829339389      -3.21674112519883      -0.76276064772020
H        -1.59334045270400       4.11257827790004      -0.68366010240091
H        -0.03870205550992       4.48636652527780      -1.47144288386710
H        -0.52420774096461       5.36403117346471      -0.00320254237295
H        -3.71881631763737      -1.67442554547712       0.79831271953077
H        -2.86480618452387      -3.11989967586546       1.38904862575465
H        -3.94194308927789      -3.23780235062898      -0.02318407157836
B         4.39283419210315       1.60731879722607       1.31060873354375
F         5.49911170172653       2.29401090066445       1.79586505163753
F         3.65276287291765       2.41192219024222       0.36694802719344
F         3.48813584190745       1.25232894833072       2.37257999061329
F         4.77432244153837       0.39645350599419       0.64182371500745
