49
C13H28F6NP optimized with ForceField in AMS.
N        -0.69653245198518       0.53435414814321      -0.20032608456560
C        -1.66805297887075       0.27246013558011      -1.31255611746815
C        -1.25202180145967       1.61874632915580       0.67515275816422
C         0.56462061284680       1.03860146729435      -0.84898308325246
C        -0.44390935591993      -0.69768852154792       0.62865857200619
C        -3.08652805710497      -0.07967080474908      -0.83818742629456
C        -2.67604052101177       1.33757902938528       1.19876495666509
C        -3.64156381972892       1.02349242460981       0.05837903866154
C         1.76226218117768       1.29164749999969       0.10080672815549
C         0.21155110061645      -1.88487496430826      -0.11652806292228
C         2.96724172435888       1.83346687452037      -0.68128403587980
C         0.44078549482997      -3.06664936243346       0.83340578160067
C         4.17319890558624       2.04556366860320       0.23105638608125
C         1.09868941640843      -4.23813624130905       0.10800629354118
H        -1.30910247123673      -0.52938456528026      -1.98974431404614
H        -1.76104085112129       1.17577710483386      -1.95978973471328
H        -1.28604510019120       2.58707134056106       0.12444470230821
H        -0.60776167003416       1.78167997277832       1.56595372394558
H         0.35754753053459       1.99489491945035      -1.38403708349374
H         0.89737380186627       0.33772574989881      -1.64714418170705
H        -1.38508250624843      -1.07808552708641       1.07179653673443
H         0.18686045570968      -0.44469383549587       1.50949615773408
H        -3.10427152630509      -1.05674784812931      -0.31326027562528
H        -3.74491735491979      -0.18214987535136      -1.72792843552015
H        -3.04266970572413       2.23765761908603       1.73835821077777
H        -2.67252115253138       0.50778022821003       1.93539197177723
H        -3.81468000694963       1.94228220682606      -0.54492618747713
H        -4.61893578989518       0.70082575421796       0.47837448245323
H         2.07275162939995       0.34876592852331       0.59508590130501
H         1.49159939260861       2.03418506527745       0.87834729383296
H         1.19356657995363      -1.58835499201844      -0.53684858352853
H        -0.44869841380065      -2.23424188814480      -0.93501345767972
H         2.70146259737461       2.80323307257220      -1.15585593536881
H         3.24849829701749       1.11591420562888      -1.48303614047730
H        -0.53227292831222      -3.40487873987155       1.25162269409979
H         1.09635776122060      -2.75102618139778       1.67397132867821
H         4.48049966473425       1.08385818423477       0.69511429604766
H         3.92979621037395       2.77717711286684       1.03092769454509
H         5.02552948988376       2.43951661050825      -0.36196723458661
H         2.09449622023310      -3.93929983099767      -0.28404077330865
H         0.46119841412318      -4.57917860896096      -0.73590450120055
H         1.23464138303118      -5.08458442120943       0.81370439926548
P         0.65232602665896      -1.99221340901249      -4.89814962369016
F        -0.86617636910110      -1.20692936125939      -4.72610012242680
F         0.86484021003019      -2.05225682991763      -3.19754756899269
F        -0.16550560953751      -3.50176089142916      -4.83342535584649
F         2.16540556133884      -2.79157613036758      -5.04810291008673
F         0.54077450800551      -1.96807180014079      -6.61225380378602
F         1.41847048226687      -0.45456675104736      -4.90741024343570
