57
C15H28F6N2O4S2 optimized with ForceField in AMS.
N        -1.54187458252781       0.09476220790835      -0.07672334518361
C        -2.55267042339946       0.48955993818444      -1.11147293174781
C        -1.79023055796681      -1.33039180410045       0.31508578310570
C        -0.19678082766486       0.18774305292195      -0.74174394453954
C        -1.61736876747013       0.97038954610511       1.14409365588382
C        -4.01310782302332       0.28694483458150      -0.67468008483922
C        -3.23524675697303      -1.60686786910464       0.78155519014243
C        -4.25153174015158      -1.16403389275803      -0.26773520700551
C         1.02867253001878      -0.12374136324143       0.15344835207467
C        -1.27535510523376       2.45435138856027       0.92385175920934
C         2.32913008109658       0.04075730367691      -0.64622707892878
C         3.55802721264529      -0.29856515841464       0.20581068630088
C         4.85025744222620      -0.10062407889126      -0.59577071334076
C         6.07737618964099      -0.46041111768855       0.23639601096210
H        -2.40765110046473      -0.11834785546686      -2.03562041201578
H        -2.41726603662438       1.54294158766275      -1.43313229398299
H        -1.11583191287784      -1.63850486582312       1.14301127918319
H        -1.57944702820112      -2.01127941864892      -0.54178979698097
H        -0.05624727367583       1.19938871014061      -1.18408662644056
H        -0.15601103437633      -0.51271854461333      -1.60828458757206
H        -2.62776020144891       0.94661878524709       1.59457706177248
H        -0.95233222583328       0.58043494122374       1.94453694802515
H        -4.68014542351508       0.53244371898683      -1.52922872977568
H        -4.28705778327484       0.97611880007381       0.15020744357486
H        -3.44373032636469      -1.10623584240638       1.74994531699521
H        -3.35507689946228      -2.69764895496962       0.95702362265313
H        -5.27989144996866      -1.27133496912769       0.14000778862908
H        -4.16723957686041      -1.81888789046726      -1.16300877063475
H         1.07186704590199       0.56786500144440       1.01891594126310
H         0.97750094293627      -1.16649691159781       0.52861282911474
H        -0.22770399025181       2.59514863867032       0.59332048728175
H        -1.96422689720036       2.93000015057594       0.20205577764356
H        -1.39156133473380       2.99362914703802       1.88762689553246
H         2.40965917536884       1.09189976113617      -1.00200387304316
H         2.30518266246693      -0.62955387673334      -1.53371758578143
H         3.49085390874077      -1.35675946669230       0.54212550652179
H         3.57859419283781       0.35763600119173       1.10382778658166
H         4.83148988152776      -0.74212152925636      -1.50383087492123
H         4.93257664867866       0.96060890605917      -0.91757856970188
H         6.03494010219766      -1.52678295284154       0.54459605932825
H         6.99565533012778      -0.30190914176798      -0.36763343139886
H         6.13206079664415       0.18158369526076       1.14123571503124
N        -4.10771541741072       7.28078278409474       0.22500873383419
S        -5.30687608248564       6.28847889395556       0.73862654436548
S        -4.35161604560762       8.48372189918534      -0.86154463155917
C        -5.34722824545463       4.83506708631299      -0.28959384799316
C        -4.52372810742450      10.02876014310982       0.00650977087797
O        -5.02706809277320       5.87268414962563       2.15491264301541
O        -6.63792370995888       6.98516992184148       0.67267805427267
O        -5.58867611761707       8.22652397339853      -1.67704975985876
O        -3.15965035385429       8.57196985253146      -1.77169540371280
F        -6.33611755124877       3.97929692443580       0.15674145956166
F        -4.12672456880575       4.19342270832821      -0.22735554842941
F        -5.60745132126942       5.19388692897282      -1.59814827536630
F        -4.74705033445661      11.04614204904799      -0.90170241734572
F        -3.36638579351288      10.29274551377813       0.71416154393995
F        -5.58941946993140       9.95516799894315       0.88307732002200
