36
C10H12F6N2O4S2 optimized with ForceField in AMS.
N        -0.48930688121140      -0.00604688498540      -0.41612914801696
C         0.93958341828609      -0.00575350237394      -0.75094420524384
C         1.77752966835461      -0.01178427865643       0.53084518103592
C         3.26826653987370      -0.01617576301230       0.21591931332737
C        -1.14639912726468       1.18134943649704      -0.23997614956235
C        -1.14505037897531      -1.19426691435581      -0.24162872354591
C        -2.49596814389118       1.19795481866687       0.12059306394643
C        -2.49449692056839      -1.21297888447865       0.11883726627843
C        -3.17086092555492      -0.00806940180691       0.30195794117423
H         1.19048383568768      -0.89686317869638      -1.36928296074667
H         1.19152794359866       0.89019844466569      -1.36208563649219
H         1.53172179683306      -0.91316726081276       1.13298884834645
H         1.53765461285867       0.89076342752319       1.13422327591863
H         3.54168031171903      -0.92864670374010      -0.35486927700863
H         3.84744817136181      -0.00205261138135       1.16331858932653
H         3.53122799303352       0.88185789937671      -0.38143235996990
H        -0.62633352609566       2.12353653273511      -0.36765295483190
H        -0.62371578786298      -2.13551209123296      -0.37079546698218
H        -3.01151129969753       2.13869880689389       0.26375112613530
H        -3.00871529503001      -2.15461403416643       0.26052236663346
H        -4.21483400911227      -0.00898041970394       0.58716445431827
N         7.25202070784767      -0.00894259796146      -0.14554360306454
S         7.02292758699908       1.27923188653688       0.84352421966060
S         8.01852807394502      -1.37540679131048       0.34100796455342
C         8.38336097557807       2.41318348538024       0.66465666773766
C         6.80475053130972      -2.61236574393601       0.75256346533906
O         5.76242115020821       1.99352735541688       0.44884166687394
O         6.92068691533537       0.83481640836523       2.27657710325412
O         8.88482745795496      -1.10471542662293       1.54023241762520
O         8.86949083544049      -1.89301132143994      -0.78414496975343
F         8.17516821349889       3.51504183620798       1.47275505259559
F         8.47029424445796       2.82304671681767      -0.65251785074458
F         9.56183125498220       1.79207996138382       1.03045465150506
F         7.44032750338996      -3.76245478343362       1.18188534540373
F         6.04214626185963      -2.90097808761109      -0.36337996175929
F         5.98344065145031      -2.14027723244830       1.75849935083297
