46
C14H26F3NO2 optimized with ADF in AMS.
N        -0.19369412786169       0.48058143908997      -0.12238885604777
C        -0.25465825281748      -0.03053968546392      -1.55981551603413
C        -1.58956116240661       0.47196318144128       0.46097906795723
C         0.72274286624105      -0.38714210317253       0.72200232848638
C         0.32568067616516       1.91114763299288      -0.18873436409172
C        -0.92491713062595      -1.38543730095956      -1.67992830988920
C        -2.27775007271149      -0.88229884496520       0.36621818331974
C        -2.33010880231032      -1.37469998184803      -1.07921123853561
C         2.20119641381149      -0.26597179216184       0.38898857311891
C         0.42909738448649       2.63042314584612       1.14372491154769
C         2.99065077601667      -1.41373579558267       1.02166693099088
C         1.08931463242775       3.99354657818443       0.91854946828398
C         4.48323544223958      -1.30760232726363       0.71926331743359
H         0.77496761909120       0.01345886400091      -1.94953793138339
H        -0.79524334604098       0.74674274521360      -2.12233143960266
H        -2.14945293617874       1.22683545641463      -0.11436695249412
H        -1.51130702073573       0.81286841808359       1.50198638234373
H         0.38669890876509      -1.42228905290114       0.58067881675092
H         0.52755570836303      -0.12062767791955       1.77286635134889
H        -0.34135546472021       2.43762057233956      -0.88790851727060
H         1.29075252545394       1.84398517924852      -0.72001309144793
H        -0.31531649085232      -2.18050549314887      -1.21605970345814
H        -0.96056502203869      -1.62182714856892      -2.75617250474386
H        -3.29305804076889      -0.76160677868417       0.78018080243972
H        -1.77057243408300      -1.62165343980856       1.00954944223979
H        -2.97002600347097      -0.69395594695937      -1.67018093009587
H        -2.79051617358602      -2.37459107808061      -1.12930552097017
H         2.59843193673767       0.69403988188767       0.75845051798134
H         2.36298889125841      -0.25146727105389      -0.70084945613592
H        -0.56472760555812       2.78211548149415       1.59870046006007
H         1.03212573508892       2.05424867607675       1.86614991796082
H         2.60434813472100      -2.37705177896951       0.64015848530771
H         2.83113899331746      -1.42471750906900       2.11609433214426
H         1.15384381990441       4.55622912701807       1.86101483561160
H         2.10513840524765       3.87230686211353       0.51319196220408
H         0.51492842916116       4.59442370148676       0.19681269873232
H         4.89939921705871      -0.36720121952660       1.11398853177786
H         4.66254104150764      -1.31757150714891      -0.36717023166864
H         5.04061551588814      -2.14219048600307       1.16969048077004
C         1.73648292087847       2.13542359437298      -3.23839621099459
O         2.36529508215996       1.34964449537841      -2.47089412697005
O         0.53011518000445       2.46547405374614      -3.25431209926830
C         2.64182666166418       2.77247284446862      -4.34751206608256
F         2.04084214667571       3.79550663492491      -5.01902208413351
F         2.99334334485467       1.83243174266932      -5.28838980488961
F         3.80967021897714       3.27192872456677      -3.83181243470319
