53
C15H17F18N2P optimized with ADF in AMS.
N         3.06199225483363      -0.00964676193765       2.06966529783300
N         2.17499680235754       1.93568223305766       1.69486600946944
C         3.92692668107167      -1.20077630619380       1.94005907706431
C         1.76562708265184       3.16673904992977       1.00791858488060
C         2.95022726741703       0.97762626085904       1.17200740447034
C         3.91485081269332      -1.78610781000453       0.53591323762253
C         0.41160107590070       3.01138886873275       0.32121311842931
C         2.34817229127743       0.33505992188911       3.19775997718337
C         1.78758763746653       1.55661957702708       2.96156831635752
C         2.53645995441252      -2.24294076371138       0.06933975864319
C         0.41480587938645       1.95844074942376      -0.78286923972652
H         3.53998706308146      -1.93088807904462       2.66769482970341
H         4.94173565928068      -0.89010870199261       2.23204804173810
H         2.55865184766195       3.40778458972552       0.28823933993591
H         1.75927232684309       3.96246933816670       1.76724681489520
H         3.45447346535388       1.03437667715517       0.21772190469667
H         4.36319886159589      -1.06682752941017      -0.16792144995651
H         4.61474422634295      -2.63880602466649       0.55509302632869
H        -0.36109135156763       2.77774174971748       1.07477337015730
H         0.15362425638804       3.99939076759756      -0.09756800384986
H         2.32456139130598      -0.30024622240278       4.07394000620339
H         1.17314469283771       2.19216501905209       3.58675786187737
H         1.82210727477726      -1.40622480005915       0.01912227863640
H         2.11607174799583      -3.00243165099962       0.74814420807256
H         2.59306042092129      -2.68607469509275      -0.93616474523323
H         0.60568002007175       0.95145890541610      -0.38097102094357
H         1.18624482474465       2.17930433639548      -1.53777117748226
H        -0.55767849639257       1.92534181579054      -1.29631656090332
P         6.83643468437802       2.10872582858681       0.99079590900304
F         7.34032407660107       1.38063598806157       2.40058087102026
F         5.64517806051672       0.90307395607834       0.82950664355978
F         7.96476448988848       3.31916555917020       1.06348857252872
C         5.66209744417241       3.15219093860281       2.23325269058987
C         8.20800329672668       0.99162523412658       0.08973748475495
C         6.04552496214594       2.82015209598250      -0.72231071371310
C         6.36615896411231       4.11447382651969       3.25019421294936
C         7.88064879761315      -0.49594875751201      -0.22846068067222
C         6.48871288818605       4.20788069817933      -1.25851498994588
F         4.94072407920955       2.25965240414248       3.01516917331988
F         4.71242346530093       3.96665718102660       1.63500838933481
F         9.31009085910987       0.93502161082107       0.91442188677277
F         8.65173954773032       1.55077970822426      -1.08656089209253
F         4.64970913122564       2.89750294063383      -0.62203743535679
F         6.24976370488650       1.93222281385450      -1.75059460041993
F         5.42316462388313       4.55880725597338       4.14247263112924
F         6.86901412217121       5.20189943701216       2.62503294702158
F         7.34439891534453       3.52247116282259       3.95849667659850
F         8.97028882833264      -1.10086069373103      -0.77205204549123
F         7.55147994428085      -1.17958653774878       0.90062578763158
F         6.86030212304414      -0.63264367135816      -1.11414974144892
F         5.78669135509658       4.50416012224107      -2.39362574460494
F         7.79888780775194       4.22237948656654      -1.56925192819814
F         6.23731019278047       5.18393888880346      -0.35485478637398
