25
C9H13NO2 optimized with ADF in AMS.
N         0.41465667497837      -0.03415580803827       0.06803212485008
C         1.62225590292479       0.02743808842943      -0.75080668881211
C        -0.33756298343573       1.09707479826429       0.30320451172396
C        -0.03733395012640      -1.23392603407017       0.57454520254923
C         2.88288492204096       0.29897491218027       0.06013057611336
C        -1.46235230594654       1.08295611816592       1.04942374475392
C        -1.15078463907662      -1.33300594431935       1.33150926103285
C        -1.94288391462403      -0.14358157204416       1.73543125614723
H         1.70577272175810      -0.92751922895067      -1.29424682859692
H         1.47060682825330       0.81070717005222      -1.51066401424484
H         0.02618294133772       2.00481632320877      -0.18011349734071
H         0.55550075686316      -2.10687950819192       0.29824738827662
H         2.80815908789212       1.26088044476590       0.58918806732218
H         3.76157707520766       0.33605239955027      -0.60260331346937
H         3.04577732110104      -0.49216183674337       0.80701136965047
H        -2.03982522511055       2.00247947739901       1.15608464141409
H        -1.48161959570971      -2.31882569356726       1.66184731548121
H        -3.01921466134423      -0.30307219058004       1.55997417023794
C         0.41377521519640       0.34237356096022       3.51691877246941
C        -0.98037836714597       0.24372884825686       4.07981724366999
O        -1.20871520953235       0.35455834656141       5.27091392470091
O        -2.03720512593239       0.02292439564305       3.24889625118658
H         1.09867617324792       0.53392571884400       4.35170816156023
H         0.69550563668265      -0.58998420869388       3.00956056123717
H         0.48316126150034       1.15519562871748       2.78153769338650
