50
C12H28F2N2O4S2 optimized with ADF in AMS.
N         0.82736082755096       0.12985895624381       0.44943773875589
C        -0.54794177032723       0.57538643821719       0.90260208147738
C         0.73506520118073      -0.80262018239569      -0.75857758017682
C         1.50832646219980      -0.61607034596665       1.58595365082793
C         1.63144620777057       1.36211305599657       0.05005448229353
C        -1.52670666144085      -0.53137439638625       1.26242422326718
C        -0.11526556628542      -0.30434658605335      -1.91390091324056
C         2.96672643802675      -0.97251485532186       1.35788349782075
C         1.93289484151494       2.35940821655206       1.15493130044320
C        -2.88416694300552       0.08237752775889       1.60966317086300
C         0.02537446936605      -1.28189425237729      -3.08262287840057
C         3.48639412595137      -1.78024537012955       2.54699477639293
C         2.81454566730154       3.46947333036513       0.57403767211034
H        -0.94940846678299       1.19390751092925       0.08619942736659
H        -0.38740169993463       1.22977281692948       1.77122376236436
H         0.35107283345946      -1.75991980811914      -0.37248232153429
H         1.76533855108967      -0.95608286066884      -1.10482404620213
H         0.91703832173135      -1.53008445782103       1.74106875227916
H         1.39541425494922       0.01444188950761       2.48203922033536
H         1.06997685845032       1.84315195819174      -0.76268679803038
H         2.56154992708917       0.98490048223045      -0.38909389341431
H        -1.64812708648334      -1.23209015973448       0.42136737728242
H        -1.15977447720106      -1.11123770290671       2.12427313127465
H        -1.17669714879467      -0.22485386834321      -1.62204654969286
H         0.22952604665800       0.68401488481282      -2.25501195916986
H         3.09533604434536      -1.55424542973347       0.43290329323542
H         3.57829066735229      -0.06592105421540       1.23728015258107
H         1.00874296553312       2.80169375526914       1.56369728992480
H         2.46583494893462       1.87363725934346       1.98933267045694
H        -3.60449660700372      -0.70093912144254       1.88474146235985
H        -2.80217384655847       0.77904516263009       2.45858314951821
H        -3.29828899521329       0.63793000018969       0.75394956833973
H        -0.60283806896659      -0.95902870357436      -3.92464287972871
H         1.07047113086967      -1.30780121136527      -3.42396622593106
H        -0.28054624236199      -2.30149849854177      -2.79711135369551
H         4.54068724607121      -2.04568337430247       2.38654137012649
H         3.42046496094506      -1.20810164511727       3.48637680565723
H         2.91987283292352      -2.71613575344969       2.67655437993159
H         3.05874657015303       4.21055270170930       1.34821892288538
H         3.75244997268068       3.05855111765829       0.17112787821687
H         2.30626033793966       3.98689263383497      -0.25339232600593
N         3.05901647413681       0.44930040251102      -2.72395945683681
S         3.02126044980382       1.94727211657710      -3.32760970473597
S         4.43011187049169      -0.27830135220907      -2.32166201710978
F         3.44556756354392       1.73097340324184      -4.89717370632324
F         4.89030091231089       0.56082126882600      -0.93645214973411
O         1.61594020023301       2.32357429880717      -3.37513133964368
O         4.00491204144904       2.86942800161680      -2.79563665831294
O         5.56064379137590      -0.12981143608950      -3.21004128259997
O         4.05540847687658      -1.58260742748502      -1.79027266636878
