37
C9H20F6NP optimized with ForceField in AMS.
N        -0.05669244049130       0.25563481281649       0.15418785611888
C        -0.97946986843250       1.24230255647203      -0.49278319085219
C        -0.49522564314240      -1.14096239631339      -0.15188228073971
C         1.30664403140911       0.49674173538198      -0.42703250885887
C        -2.47137524914297       1.01149791696624      -0.18416636789657
C        -1.97142791701142      -1.41296461091663       0.18296815133803
C        -2.88214154120464      -0.41638170690456      -0.52242468037581
C        -0.01779799632430       0.49120497672381       1.62343503217875
C         2.44092021185174      -0.40049228288220       0.12877720182278
C         3.77268744884086      -0.07608299891403      -0.54267953321141
H        -0.86873459065005       1.20445673661408      -1.60160680175454
H        -0.71837548798073       2.28084350276419      -0.18467370852624
H         0.10434337795097      -1.87901969130182       0.42140481425151
H        -0.34192249317152      -1.36401021775588      -1.23294107508857
H         1.60373805651455       1.55969000300033      -0.26481273198585
H         1.27718610221667       0.34983769408654      -1.53212054645014
H        -3.07939635799329       1.71104983710804      -0.79716194308610
H        -2.70237004581843       1.23616561852585       0.87749287225772
H        -2.13583831143267      -1.37288502207589       1.28029925988946
H        -2.23605543853663      -2.43827837369671      -0.15343359033760
H        -3.93264393868926      -0.58527021179060      -0.20265786268496
H        -2.82463744404365      -0.57065900057637      -1.62260290095367
H         0.55051894971112      -0.30331847667258       2.14838507119968
H         0.44789021711975       1.47389819870813       1.86057573342466
H        -1.02620728919233       0.48692870447328       2.07955195802850
H         2.57010669071845      -0.24456519274137       1.21891822526129
H         2.22613546859702      -1.47051092662545      -0.06220114908874
H         3.70926038891155      -0.26077934521250      -1.63623856579948
H         4.04959790303592       0.98466477782421      -0.36328673078962
H         4.56859626210387      -0.72553477377417      -0.12045245539524
P         2.11928276915869      -3.65421534074365       3.40794429611574
F         2.47984394890412      -3.87657141670888       5.07286445257000
F         1.71304640153269      -2.01763402211021       3.73228967692345
F         3.72318601736958      -3.14084179125603       3.06819874115591
F         1.76473575155910      -3.51151342959544       1.73393112489767
F         2.56588558438455      -5.29794558641977       3.18428435269603
F         0.47546294146780      -4.08481648927710       3.66149075484529
