38
C10H22BF4N optimized with DFTB in AMS.
N        -0.82580236691955       0.15082136279052      -0.21430576815692
C        -1.90716934301701       0.06551882819773      -1.25198002933384
C        -1.61041697668659       0.21565254460075       1.05897800556795
C        -3.00885715580658       1.00096815694617      -0.77155189574014
C        -2.82101542672905       1.09448443321461       0.75100811471013
C        -0.02963604146055       1.40027226887296      -0.43694665442596
C         0.03226961905181      -1.08301262336933      -0.21705704347474
C         1.12906075816512       1.61030117188334       0.53724988884422
C         0.88821879908540      -1.24292645385839      -1.47115432715453
C         1.79546274904489       2.95547440488706       0.24897412538765
C         1.45671556893016      -2.66112769890733      -1.50733163675366
H        -1.50780419096978       0.31417749522058      -2.23367808618944
H        -2.26472242879226      -0.96456165990465      -1.26489983500563
H        -1.92237300818837      -0.80423848149151       1.29349628604666
H        -0.98774807298726       0.59444456813810       1.86873862601925
H        -2.93047932324753       1.98773212904359      -1.23352777121423
H        -3.98063639278346       0.57870909852928      -1.03225288929345
H        -3.69506420048322       0.72452092143506       1.28922221664396
H        -2.64243050206982       2.12616439177881       1.06224860156850
H         0.35060635535135       1.35501010178913      -1.45995589498113
H        -0.72437594485724       2.24052927442276      -0.36832830741452
H         0.65157390745613      -1.05015403205986       0.68322956351723
H        -0.65396645637971      -1.92996071570309      -0.14278199562518
H         0.77177965659752       1.60084433739292       1.57041749413100
H         1.86942219788933       0.81473672629935       0.42725086051006
H         1.70471386627222      -0.51411266485202      -1.47829523822683
H         0.27485869056547      -1.09272963166332      -2.36188964484179
H         2.17178444803305       2.98405552966726      -0.77390860406549
H         1.08579327567304       3.77248710349286       0.38315416849127
H         2.63123783983022       3.10423690053101       0.93160545163241
H         2.04555577745050      -2.86794596245932      -0.61210508656483
H         0.64165780527182      -3.38159449256528      -1.57222749695083
H         2.09554848364442      -2.77479345630386      -2.38232306985837
B        -2.30677397195710      -2.67333535229922      -2.75894106389641
F        -1.67938518011569      -3.02178998124384      -1.51900845778543
F        -1.47099673140449      -1.69658672766519      -3.36724189830750
F        -3.52834247958838      -2.05861135973425      -2.44519623515520
F        -2.45498178116878      -3.77168890815343      -3.55443255535429
