34
C10H21NO2 optimized with DFTB in AMS.
N         0.23112020466307       0.04621363793944       0.08234887241852
C         1.43932238526855      -0.51154541757322      -0.61530547044955
C         0.72412619194965       0.26648942981061       1.47727272899837
C         2.61892607269467       0.26934009425817      -0.05066065633907
C         2.14861228334472       0.79367163061705       1.31507466705787
C        -0.89165035828599      -0.94487091735823       0.07397122214994
C        -0.15963237236483       1.33953276877684      -0.57774496313890
C        -1.47453883886803      -1.18600944620714      -1.31219722839979
C        -1.33542871176109       2.05362055294583       0.06579387885521
H         1.31204915819961      -0.38081052959118      -1.69355752442364
H         1.50458823610132      -1.57353969836752      -0.36538208082766
H         0.72077113413165      -0.70185882159917       1.98435575185202
H         0.06077091936125       0.94805357523268       2.00840782997741
H         2.86757107819227       1.09365889488074      -0.72343971501335
H         3.49151221945936      -0.37882204040908       0.04438674545297
H         2.77681434285423       0.43083527444772       2.13079047939101
H         2.15964605834814       1.88529340500435       1.33808715266267
H        -0.48806494276047      -1.87652681076705       0.48032592164823
H        -1.65956946031164      -0.57762748650328       0.76013541953301
H         0.72397122715429       1.97812012067877      -0.57857755227252
H        -0.38148275233520       1.09133520842052      -1.61896203995188
H        -2.07545264546867      -2.09437843878799      -1.27585481973534
H        -2.11324329156105      -0.36120068403288      -1.62162051937946
H        -0.69187746986325      -1.30663236981552      -2.05911401027221
H        -1.52702305428934       2.95013709930960      -0.52364662093092
H        -2.23901917833727       1.44551645845544       0.05881698334338
H        -1.12580633086946       2.36220531404338       1.08994680948208
C         1.56937963905344       1.57709642725101      -4.95115047161295
C         1.25513689739234       1.16704529404090      -3.49561321488860
O         0.40862112937702       0.25157812870376      -3.34565698006320
O         1.86558729678103       1.76486881617614      -2.58704735597408
H         2.19720547920186       0.80647459082371      -5.39758758000096
H         0.64383440949625       1.64508231296182      -5.52028836480417
H         2.09601493555159       2.52907411553379      -4.97140880454445
