42
C10H18F6N2O4S2 optimized with DFTB in AMS.
N         0.10492299918696       1.12682797870938       0.72067288431578
C        -0.75564078201911       2.23864226663497       0.18218359436625
C        -0.22446569982754      -0.14352372585235       0.00112444151849
C        -2.24478077690619       1.93663080698873       0.25515320138288
C        -1.70326675064363      -0.49953434721719       0.10995150753611
C         1.53284470023142       1.52383806787976       0.43516631066017
C        -2.57447350039766       0.62376465729567      -0.45107392167780
C        -0.08774642048487       0.96898761283753       2.18988367426656
C         2.58213628744238       0.60993896431518       1.04568929287819
H        -0.45272491612077       2.39057784508042      -0.85782878280630
H        -0.51135390973763       3.13434419610110       0.75923959072320
H         0.39116993308771      -0.93891710172988       0.42563292369727
H         0.05201669525639      -0.00189108581698      -1.04769022527435
H        -2.76560051495020       2.76413982126575      -0.23312580741983
H        -2.57975565197348       1.90795638952190       1.29399411825773
H        -1.96918345277770      -0.70017696298022       1.15096597802784
H        -1.86439683497793      -1.41876348970042      -0.45934796008304
H         1.64071099280183       1.55004588213504      -0.65212822355368
H         1.66059259174138       2.53718001093845       0.82349204723693
H        -3.62867881094660       0.37808541888424      -0.30519799505414
H        -2.39277785273327       0.72390819854183      -1.52636332370611
H        -1.14757847400186       0.96101715032914       2.42506914408638
H         0.37089680181499       0.03787785307546       2.51393571622254
H         0.38055884940621       1.81488640285608       2.68767820471788
H         3.55623836906767       0.97416692177097       0.71992674493935
H         2.55728781390730       0.64468253675035       2.13288448432327
H         2.47296859298366      -0.42222849797134       0.71544095896535
N         0.45883238048007       4.04215528540096       2.40264681847789
S         1.90669159324055       4.67368509059843       2.70756407591735
S        -0.67950895517772       4.11502360264704       3.53845415507150
C         2.73312123914315       3.60219744339072       4.00995504856670
C        -1.29358235111537       5.88234234539843       3.65861241830556
O         2.68543654916275       4.38879686989050       1.52340694704912
O         1.89850828470197       6.01122486952924       3.23305961737215
O        -0.23486575410037       3.74834913980439       4.85967576826117
O        -1.80039151759350       3.38375166571134       2.97715943590369
F         4.04017456341362       3.60886088523331       3.80418220120003
F         2.30093650495463       2.34299396884464       3.84998658361779
F         2.48780230734643       3.99096858238544       5.23849057407818
F        -2.57443193843266       5.86132794291525       3.98981030628460
F        -1.16764211015427       6.47278666545728       2.48102821740945
F        -0.62260962459871       6.55483860254942       4.56700543363791
