40
C12H26ClN optimized with ForceField in AMS.
N        -0.70958475659644       0.33683838592737      -0.14074481916763
C        -1.31931279136080      -0.41845126412571      -1.28445492881290
C        -1.80838716082473       0.79599151919103       0.77217869610901
C         0.26687464375038      -0.50920174543434       0.63322909843481
C        -0.04378653132440       1.54857248322103      -0.73381172688946
C        -2.21793405796026      -1.59097028999279      -0.85722284167334
C        -2.74534635235925      -0.33274091510862       1.24652294176611
C        -3.32935367868511      -1.10142115408507       0.06522267586992
C         1.52282036072413      -0.96907608129838      -0.14696874121837
C         0.72373103431290       2.45090818351477       0.26413322895511
C         2.44573754611065      -1.80143132944996       0.75288719992957
C         1.31753680214438       3.66353453815895      -0.44903136187490
C         3.69071540427539      -2.25568313338034      -0.00394035623357
H        -0.54614095589414      -0.79667737636299      -1.98507607730757
H        -1.95403126691960       0.26361911905246      -1.89748305941769
H        -2.44022394203655       1.56319318489847       0.26750088255170
H        -1.39564368648598       1.27503844542536       1.68622029137310
H        -0.22203973946946      -1.42271901480401       1.02434694032596
H         0.60173814126438       0.03092478648783       1.54575027088875
H        -0.80305616596141       2.18758849986702      -1.24190277913114
H         0.65679776534904       1.24987096038783      -1.54505397324619
H        -1.63009838839146      -2.39236094120532      -0.36550934764168
H        -2.67822204426913      -2.04132121641221      -1.76336719815182
H        -3.57973086008940       0.11489070342192       1.82867128257380
H        -2.21628005420420      -1.02835141052248       1.93067874392288
H        -4.01976379786874      -0.43959375088999      -0.50273472454747
H        -3.91368505399146      -1.96999885426654       0.43812600319326
H         2.10107217891539      -0.09695133824551      -0.51322275672691
H         1.23313116971785      -1.59774437336981      -1.01236657760793
H         0.04898472387956       2.82738678763396       1.05863864204147
H         1.56055661778790       1.89942881292399       0.73841105676568
H         1.90244866248293      -2.69863774430175       1.12135524741077
H         2.76046656390297      -1.19590017767144       1.63049020484098
H         1.87049635799066       4.29119643944237       0.28136191952868
H         2.02328775129541       3.33818278025274      -1.24267959211714
H         0.51166576672402       4.27801178456536      -0.90416701759233
H         4.26932430685061      -1.37582165124761      -0.35749121268606
H         3.40544533467883      -2.88166877496024      -0.87622876675663
H         4.33662302154570      -2.85750526321273       0.66946742387004
Cl        0.25225513648945      -4.63925725412462      -1.46196905125091
