44
C12H23F6N2P optimized with ADF in AMS.
N         0.97209630057073       2.19193436510337       0.76340629393765
N        -0.45592306075236       1.51950473582187      -0.72649169972250
C         2.24399718610754       2.56718775549481       1.40932479192421
C         3.18095203967321       1.37538976826053       1.58085780265229
C        -1.04076850553268       1.11673048304537      -2.02033851110025
C         2.54975881581094       0.17353438438566       2.27549038332435
C        -1.68397689901213      -0.26458469245913      -1.94536330230372
C         0.80188988302001       1.94235395665510      -0.54347301060808
C        -0.19959754124356       1.89876149929316       1.43005159682048
C        -1.09951434298839       1.48028288358437       0.49408245315549
C         3.50433234644367      -1.01935483002742       2.31841375454241
C        -0.70663290139545      -1.36889833267205      -1.55215305532127
C         2.86516198758618      -2.25340359045118       2.94624224372523
C        -1.36471566506903      -2.74249194208036      -1.50532732603265
H         1.96639170326895       3.01222017795429       2.37684663434335
H         2.70779772918633       3.35057154303891       0.79144198786091
H         3.55138236162735       1.07194867481603       0.59105414172426
H         4.05343047182560       1.73606855641359       2.15514565315503
H        -1.77048414689154       1.89143125915042      -2.30739614855687
H        -0.20889379597776       1.11139552864265      -2.73738402994926
H         1.64722439649686      -0.13601220919108       1.72036540004779
H         2.22750171789562       0.44060738108482       3.30219935952282
H        -2.10407905885842      -0.46821656195750      -2.94716501760395
H        -2.54979521128871      -0.24677746132488      -1.25588926930129
H         1.57494765738175       2.00582079635052      -1.30494795262889
H        -0.28525638178632       2.00208383147392       2.50374781832062
H        -2.12648211069343       1.15532528163937       0.59326099803800
H         4.41636293048059      -0.73946803730310       2.87619449888464
H         3.81802275364766      -1.24408110522696       1.28498743643815
H         0.13785810193517      -1.37642247523918      -2.25896271996963
H        -0.26204036417839      -1.13809334298451      -0.56995666221116
H         1.97852817162646      -2.56542988330020       2.37128919034638
H         2.54618462033602      -2.05708619427073       3.98288597325179
H         3.56571083759543      -3.10285660856876       2.96393735913801
H        -2.18434558995889      -2.77511150975653      -0.76856567729662
H        -0.62825698622174      -3.51220903385670      -1.22812246102448
H        -1.78179204997949      -3.01812778356484      -2.48701047611993
P         3.15904251879885      -0.26765169027521      -2.15882975038648
F         2.71140702051301      -1.78132560309276      -2.59807949094899
F         1.85883002183235       0.36907120421542      -3.01488485979213
F         2.16258330368866      -0.38194717804826      -0.81253656880172
F         3.52881997735506       1.30878453549280      -1.68657973302914
F         4.40758466724813      -0.83177145162507      -1.25619482826450
F         4.11201197717614      -0.10784594434056      -3.47054057468035
