17
C5H9ClN2 optimized with DFTB in AMS.
N         1.10544162176488      -0.03828820695432       0.00041897666413
N        -1.04203197637002       0.06803438877573       0.02005301326210
C        -0.00760591991331      -0.77522822063292      -0.00539520832262
C         0.77468639991646       1.28743304205860       0.03187811283752
C        -0.58157797740668       1.35460433150940       0.04453099179636
C         2.46540765018824      -0.54752038961585      -0.01338571059692
C        -2.44570755531675      -0.30427673227969       0.03206807171177
H        -0.06098715884646      -1.85017937659428      -0.02597355310055
H         1.49221658644744       2.09079975816807       0.05547459518836
H        -1.21449956631333       2.22586851594529       0.08059612056207
H         2.44390157485096      -1.63556290039732      -0.03388763302439
H         2.97887239913931      -0.16863443381416      -0.89744916907571
H         2.98334846682975      -0.20213789074508       0.88176203094338
H        -2.90998281923911       0.08902797892661       0.93683881651605
H        -2.93576555231546       0.12514889973688      -0.84211773886677
H        -2.53228866356156      -1.38907518405323       0.01126492263206
Cl        0.23114770264564       4.15864848366624       0.39972607427315
