41
C11H24BF4N optimized with ADF in AMS.
N         0.18050369449828      -0.54648791798845      -0.31716738315622
C         0.32563596468613      -1.35395876336813      -1.60203577211285
C        -0.81457479263587      -1.37564679815229       0.48094964623478
C         1.49398861682762      -0.46791659537550       0.43226356601791
C        -1.06015554699421      -1.93471264028011      -1.88837369781240
C        -1.82106878238726      -1.89876091907730      -0.53859864801255
C        -0.37664634105065       0.81790878149702      -0.65285425306064
C         2.60908470447846       0.22961241063173      -0.32685709654533
C        -0.53030069928435       1.77038617291448       0.52299913110440
C         3.95743989949490      -0.10758824112291       0.31798070514347
C        -1.22403013308127       3.05740346226145       0.07405211221437
C         5.12431447482575       0.57182844558171      -0.39162403042271
H         0.70942415894942      -0.69285722593868      -2.38956382066132
H         1.05255631870533      -2.14908642491131      -1.38156540058284
H        -0.23164652859649      -2.19916209688300       0.91986402722122
H        -1.23891344749569      -0.75263944041651       1.27797759159320
H         1.76946423721241      -1.51192281486852       0.63870123305769
H         1.28199948043148       0.02146398280191       1.39512644758742
H        -1.59357921805554      -1.36041908505874      -2.66097834529603
H        -0.93639735700162      -2.96689421696404      -2.24288975324750
H        -2.14390985947093      -2.90475236662546      -0.23534442926775
H        -2.71344328445047      -1.25655055174129      -0.60186554334496
H         0.30055426398025       1.25216334310658      -1.40418169501894
H        -1.34879228764254       0.64133916415884      -1.13869862553020
H         2.63421306754097      -0.12666268905092      -1.37068231319614
H         2.46446380448250       1.32537595268001      -0.35106391935746
H        -1.11850125272146       1.30133089164548       1.32851385935343
H         0.45898349318427       2.01453695327955       0.94217279388433
H         3.94072051430385       0.18587529060096       1.38350928941066
H         4.08050259902516      -1.20419973784397       0.29307921510553
H        -0.65152795648800       3.56381804142548      -0.71912942403808
H        -2.23403853594519       2.85167520080880      -0.31352883296434
H        -1.32255419493752       3.75781495462731       0.91552369325020
H         6.08308289549023       0.29640229741153       0.07123994593745
H         5.16666540686455       0.27150365485952      -1.45105321952909
H         5.03308302310839       1.66949107732911      -0.35367270457541
B         1.58655909703675      -4.14325778933148       0.33408135854736
F         1.36266328246606      -3.43271984487680       1.56676309566154
F         2.49494469844905      -3.34713878950330      -0.45805943397291
F         0.33607822371400      -4.20095359551112      -0.36657680848136
F         2.10419299528328      -5.41102484353165       0.56823811766211
