31
C9H20ClN optimized with ForceField in AMS.
C         2.69214215187448       0.36128002006017       1.56727697276020
C         1.65914922090987       1.28732208054953       0.94065247108481
H         1.42106296145717      -0.88950906361517      -0.86957613381627
H         0.40689986614958      -1.70040334768482       0.37090153094641
H         3.17771525816530      -1.46622180172967       0.48368865105980
H         2.11117501379155      -1.69325960764090       1.92884413495888
H         2.61965856779367       0.40216037257896       2.67641154655766
H         3.72199521607321       0.64879082122599       1.26125389732477
H         1.37390311761014       2.10139250630330       1.64675614110688
H         2.13935242822354       1.77406708269038       0.05867214446708
H        -1.21895112942321      -0.43173068705390       1.48070410835474
C        -0.43524784903297       0.33112206511904       1.67830913889232
H         0.09902489675679       0.00777485028127       2.59898249206698
H        -0.93560566907670       1.30114021900900       1.89532022013040
C        -0.16429472845897       1.11473420204711      -0.64944862438825
H        -0.27356966006893       2.20475042634747      -0.44401789788306
H         0.48659158886099       1.05147061884507      -1.55140516637691
H        -2.29129407753110       0.74475999057422      -0.18071882136978
H        -3.00760232081819      -2.15649277277545      -2.57575248588469
C        -1.63741629740875      -0.81802104568330      -1.55868140109004
H        -0.82753104749383      -0.98226367837034      -2.30205234313362
H        -1.51645242299570      -1.53518769768756      -0.72334376739051
C        -2.98311036604712      -1.10508782742137      -2.22060892986234
H        -3.13870932563183      -0.43346554495653      -3.09224195250447
N         0.49691200292332       0.46302458984991       0.52793038821304
C         1.09999220326367      -0.84990227527810       0.19659270279249
C         2.33994387843932      -1.02660641173358       1.06804542155298
H        -3.80907891078627      -0.95658390346594      -1.49161318010526
C        -1.58355287040319       0.62008577494026      -1.02709631561569
H        -1.95062145932135       1.29752626194524      -1.82962822023541
Cl       -1.09362812529449       4.70975762272968       1.11776555818690
