48
C12H26F2N2O4S2 optimized with DFTB in AMS.
N        -1.93269268666359      -0.48166336116422       0.14285363023147
C        -1.86604025194560       0.96670695265315       0.51015231672861
C        -3.06036477133191      -1.14596121017255       0.88530325042919
C        -0.66537589625040      -1.17126914643220       0.58590415963016
C        -3.18839264891624       1.69328204282487       0.29039180225070
C        -4.39926007934472      -0.44775421509093       0.70248595502659
C        -4.30937565982871       1.02723762170366       1.08646046984666
C        -2.11348080232312      -0.66215952022377      -1.32250745797366
C         0.61031412729755      -0.71046735648561      -0.10959370818173
C         1.78525150415835      -1.52896057345837       0.44280568818068
C         3.09814564241237      -1.13944858790477      -0.24104921237903
C         4.26610085697990      -1.97014398811003       0.30017231620547
C         5.58039533077083      -1.59319116791261      -0.38097608140591
H        -1.07645169393116       1.42758819967125      -0.08661463674180
H        -1.58589257088475       1.01383579595244       1.56623488133858
H        -2.78234225207653      -1.15646717364454       1.94127094957600
H        -3.11618496569447      -2.17421893560116       0.52723546480465
H        -0.58413466558124      -1.01564634221626       1.66401850081243
H        -0.81447193343363      -2.23602766770429       0.40949286820676
H        -3.05514628822741       2.72690135199289       0.62035879932481
H        -3.44064804727472       1.71286018742398      -0.77346286390715
H        -4.75329805360429      -0.54641154875680      -0.32731024423137
H        -5.11730748866296      -0.95919024820260       1.34831809782045
H        -4.10314239461874       1.11944552497986       2.15752239061637
H        -5.25797969967781       1.52687490369079       0.87712107754475
H        -1.36183872683842      -0.08283006082851      -1.85344961667127
H        -2.00732260268367      -1.72066352394237      -1.55202137363294
H        -3.10357297466266      -0.32332849103594      -1.61501539984183
H         0.54189825527630      -0.87362436066838      -1.18837991221343
H         0.79281648783745       0.35451039108483       0.06466565487607
H         1.86763023331054      -1.36357356837398       1.52197128976985
H         1.58758751659441      -2.59239169104220       0.28037891846366
H         3.29661992183202      -0.07437895480978      -0.07535271395626
H         3.00670228166209      -1.29781473757482      -1.32117493365855
H         4.06178268240403      -3.03288952320610       0.13495195114819
H         4.35608749210118      -1.81043709041478       1.37989860736959
H         5.51710689309772      -1.76574044114106      -1.45630794515988
H         5.81182016774883      -0.54044054296634      -0.21155949951689
H         6.39490848761850      -2.19663803105334       0.02001551358955
N        -1.93355399514988      -5.51586880056080       1.08010417525777
S        -2.36411882339604      -4.50432058360704       2.22555444650307
S        -1.49011839956818      -4.88020316954651      -0.29701659550198
F        -3.81761073506196      -3.94198456713870       1.71473910746953
F        -0.00521404313048      -4.24616876028738       0.01788262930206
O        -2.66510619696363      -5.24508794667566       3.39895486059396
O        -1.59179874969035      -3.29574236098603       2.34787180946732
O        -2.22172896340298      -3.71876786568132      -0.74487435683372
O        -1.23309141568194      -5.91978308075596      -1.22970649297753
