31
C9H19NO2 optimized with DFTB in AMS.
N         0.88247420313991      -0.55978877552077      -0.05234820212376
C         0.73038972088648       0.92916926127010       0.06183190505210
C        -0.30456570171159      -1.15613590876969      -0.73983878365851
C        -0.56174613958837       1.32436864345970       0.75741308892627
C        -1.62139745020432      -0.78869682987599      -0.06326105937554
C        -1.77355484461854       0.72897714768566       0.04138876496709
C         1.09518365544893      -1.16831691858295       1.28865934856235
C         2.09754534742563      -0.82631780762451      -0.87357135817388
H         0.75799997851020       1.33092534134844      -0.95432473340349
H         1.60096788749534       1.28781445920048       0.62041739755467
H        -0.16428579210941      -2.24002639272422      -0.75613061477235
H        -0.29893331478383      -0.78352823080301      -1.76819146762847
H        -0.62267219016664       2.41539875315255       0.74520246972632
H        -0.54495058553968       1.00541658842997       1.80255107187994
H        -1.67955306756654      -1.24122064961955       0.93029992908057
H        -2.43226332918842      -1.20657957953528      -0.66601666903746
H        -2.68822189922002       0.96836661227621       0.58893308818309
H        -1.85540002183364       1.15787481376008      -0.96302817720637
H         0.19837026629039      -1.06349833618962       1.89256162044954
H         1.33540064533199      -2.22261235152272       1.16405777649123
H         1.91910230184820      -0.62708358372978       1.77177213949322
H         1.93649316142339      -0.44421385187504      -1.87974201230499
H         2.93566249992455      -0.29013472674408      -0.40682512000298
H         2.27942880194528      -1.89880177926496      -0.90433464693447
C         5.03358290333045       1.89230319129821       2.29185568165292
C         3.77920827797246       1.31012854988138       1.60461876789225
O         3.81315187129566       1.22181658232293       0.35748268333613
O         2.82591950247906       0.97284137390133       2.34172527556937
H         5.88279885630464       1.24296009367557       2.08097077237467
H         5.24169520481447       2.87870645080015       1.88024292269679
H         4.88258310146401       1.96162058101940       3.36729959003375
