57
C15H28F6N2O4S2 optimized with ADF in AMS.
N         0.37294675450913      -1.22291651151717       0.10250403160172
C        -0.68419930179744      -1.72768418128090      -0.86800355121440
C         1.15427682082517      -2.41790399180871       0.63875132247789
C         1.32153771451674      -0.34778986096968      -0.70813919992593
C        -0.23602725731818      -0.46154740693334       1.25858152973067
C        -1.59557905536935      -2.78158988829682      -0.26358539687727
C         0.26983109272442      -3.49217077088338       1.24604437464923
C        -0.78098206983844      -3.97004577908131       0.24650815507750
C         2.41947361574197       0.35065583015914       0.07151113786197
C        -1.00978156489042       0.78493467329522       0.87635618136594
C         3.33443596433860       1.07077544665595      -0.92341457720207
C         4.52226581194704       1.76315202512886      -0.26197872540807
C         5.44358151996927       2.42061118442014      -1.28886573352900
C         6.67215762351133       3.07399530594818      -0.66205603029256
H        -0.11696736275399      -2.15202820072626      -1.71030340835810
H        -1.23597163519402      -0.84738404442083      -1.22436821820260
H         1.87908301983057      -2.02295422284270       1.36226327462238
H         1.71052642770155      -2.80918279338207      -0.22248715313640
H         0.68779081764261       0.37958964483096      -1.23845436211604
H         1.76066027261097      -1.02873797390257      -1.45199433103642
H        -0.88476732269910      -1.16675107436837       1.79147498238469
H         0.60260134055174      -0.21487244610304       1.92503929318447
H        -2.29106693657864      -3.09705835044863      -1.05909833451623
H        -2.21858900956532      -2.35775335978795       0.54413297204927
H        -0.20734026889215      -3.14647335543949       2.17990444334801
H         0.94188698013552      -4.31933541748742       1.52762059780036
H        -1.44002493786648      -4.72298641796017       0.70599619829349
H        -0.27126155633786      -4.44908832663906      -0.60815028900481
H         2.01123878701219       1.07978156541103       0.79350626463260
H         3.02625704730958      -0.38543061728775       0.62186411327649
H        -0.38852965250245       1.52207594430695       0.34964940859664
H        -1.89483019543029       0.56100249971563       0.26450586732875
H        -1.36683939623599       1.25772299879003       1.80398989382451
H         2.74894586882763       1.81049880242949      -1.50153008726949
H         3.71250324484143       0.32744880625212      -1.64351782545810
H         5.09619590778117       1.01680298826788       0.31770091047613
H         4.16652884284477       2.52408541819031       0.45904316516991
H         5.76335939347779       1.65477262435550      -2.01830482844969
H         4.87005520328305       3.17371312079476      -1.86013747086066
H         7.28066191195660       2.32935925724976      -0.12455009568161
H         7.31074675806822       3.54004970878953      -1.42774825469459
H         6.38283715351073       3.85641951993416       0.05824246314922
N         4.11858020598089      -3.97431777093316      -2.84464040190610
S         4.61692212675198      -3.62549994606097      -1.35815482960515
S         2.73089940000415      -3.50208563517144      -3.48010599970016
C         4.01387245683355      -5.12601684768050      -0.38592287692543
C         3.21579786940165      -1.95175461753083      -4.44621117375285
O         6.06356112431132      -3.73427854623078      -1.30647758011430
O         3.95350474583210      -2.49604197735548      -0.69542882427307
O         1.71339456269257      -3.00291142321324      -2.53661750834177
O         2.32058853263924      -4.43781271096700      -4.51232697369637
F         4.33916752854801      -4.97430607653920       0.92573692032332
F         4.56471438350462      -6.26715629157641      -0.83934831256658
F         2.65544533258023      -5.24592332924326      -0.46228832616710
F         4.04522433307663      -2.24604495238239      -5.46492253953781
F         3.82675154516672      -1.04220543640742      -3.64014976651079
F         2.09465026737661      -1.37144327326588      -4.95350253729366
