47
C13H26F3NO3S optimized with DFTB in AMS.
N         0.27385812478362       0.17591456568173      -0.19278449435662
C        -0.91938912438200      -0.19596384512841      -1.02241746754529
C        -0.20459852264307       0.82929660182337       1.07443779005547
C         1.11527529255818      -1.02513939954236       0.14723474961231
C         1.05469123679783       1.19131555445364      -0.99132213271132
C        -1.90620247369377      -1.09443403898821      -0.28498315514586
C        -1.18013469970006      -0.03711218302043       1.85932874055753
C        -2.38336547436666      -0.42849271083933       1.00471156384577
C         1.76766864171420      -1.72068080560787      -1.04316449255168
C         2.36465818144224       1.65613080810106      -0.35994359781490
C         2.59684394456666      -2.90309774931496      -0.52297954536867
C         2.99063758040617       2.74229536984859      -1.23166872910060
C         3.29576834276008      -3.62988407939219      -1.66824348483638
H        -0.55752931161704      -0.68405671509712      -1.92914254579398
H        -1.41282521091209       0.73902135751451      -1.30324199080391
H        -0.68508282408181       1.76848486059359       0.78580759786148
H         0.67250609393342       1.04218732174279       1.68800392764275
H         0.47340255116896      -1.73278539409068       0.67274261809096
H         1.88400225365074      -0.68763807000198       0.84157330417401
H         0.38629400869554       2.04580063423624      -1.13497155684605
H         1.24699120261191       0.74580259957978      -1.97081471256731
H        -1.45438666274842      -2.06495100875080      -0.06592853398203
H        -2.75412381165144      -1.26697570665089      -0.95328749072820
H        -1.51023905757049       0.54813036193114       2.72117335742326
H        -0.67851375178547      -0.92945446310453       2.24068521079128
H        -2.96831404184472       0.46430330737281       0.75973429703631
H        -3.02702417511191      -1.11580586184773       1.55833915432923
H         2.43151652529693      -1.03510375593794      -1.57510292591265
H         1.01282004119164      -2.08284566721844      -1.74868953906583
H         2.19095562422312       2.05547494321066       0.64045808071665
H         3.06465154459072       0.82400571327975      -0.27112887998721
H         1.94234446169482      -3.60018343225318       0.01113408900324
H         3.34368876728509      -2.52886696781938       0.18251128394737
H         3.92334105934505       3.06783855069774      -0.77334487404582
H         3.20581644418489       2.36105656495534      -2.23077971627968
H         2.32509632336576       3.60236887247477      -1.32001029676747
H         3.98858125801885      -2.95932435956360      -2.17867727083351
H         2.56970653171220      -3.99856235050319      -2.39506635727613
H         3.85927229215194      -4.47680619528844      -1.27776352037784
S         3.73646730143471      -0.02087611667773       2.53916116909131
O         4.01431062783090      -0.58530597682924       1.22174280180261
O         4.07608779849346      -0.86021585837252       3.65610162147953
O         2.41731157720826       0.61098979029864       2.61679275092698
C         4.88638978235379       1.42985854599554       2.62303908985670
F         4.62447766562187       2.25929854304082       1.60390456262063
F         6.15553053200709       1.05875501636173       2.52999048636530
F         4.72777961110829       2.11205328064698       3.75063056506824
