64
C18H26F18NP optimized with ADF in AMS.
N        -0.72485902349606      -0.23704074562831       0.69229192925461
C        -1.58061406748552      -0.25128187003594      -0.55909114654057
C        -1.43648313515536       0.57460742191463       1.77062518081861
C        -0.47652970432964      -1.64499679240437       1.21671666015011
C         0.58103880321029       0.45286130313297       0.32859620177977
C        -2.99376983658249      -0.75442026640361      -0.31735981500991
C        -2.85795206243478       0.10589764459718       2.03131515297058
C        -3.69504525848069       0.07780061003632       0.75605987119173
C         0.31900742120345      -2.56607772335335       0.31187213101024
C         1.61506630321373       0.54692290196852       1.43547852022377
C         0.46504564146339      -3.92594623362638       1.00825806791216
C         2.85556694069857       1.27668330561321       0.92065915941978
C         1.29655549156609      -4.90935397110329       0.19119485734893
H        -1.04575147956755      -0.85414652478564      -1.30528019496481
H        -1.60641901993686       0.79290075623655      -0.91264605830576
H        -1.42788092293827       1.61552350711360       1.40662703782120
H        -0.82847059102828       0.50088320829034       2.67914775286344
H        -1.46331471500472      -2.07420203476328       1.42292082614267
H         0.02177753490068      -1.52111844850548       2.18522942017441
H         0.29207214858666       1.45880101378566      -0.01778294414889
H         0.98197808686405      -0.09611157702171      -0.53751135510973
H        -2.98060575199379      -1.82058342770298      -0.03538912903060
H        -3.53059510039651      -0.69392883036330      -1.27891294341847
H        -3.28464576338191       0.80064491579593       2.77318345542760
H        -2.84903511719519      -0.87765774568784       2.52441433238298
H        -3.83696817384068       1.10797643103601       0.37986101101697
H        -4.69680600292159      -0.32971977869280       0.96289968494884
H         1.32649440689868      -2.15926146463922       0.12078752006488
H        -0.17410918897225      -2.70956493934599      -0.66617806434507
H         1.21250460174027       1.08309354089142       2.30645915514150
H         1.90068606511962      -0.45210724095644       1.79155280940801
H        -0.53874489377909      -4.34635166758119       1.19614144691892
H         0.92510169515674      -3.77203090088750       1.99815074560584
H         3.60754650121399       1.33938783196717       1.72023884110132
H         3.31125751286766       0.74772395569395       0.06875472128821
H         2.61614208850792       2.30293050760772       0.59993691758303
H         2.31017286322206      -4.51648632012724       0.01496484693628
H         0.83400732903691      -5.11074377064158      -0.78846740993707
H         1.39808043565569      -5.86853079750882       0.72013354028621
P         0.57770688565765      -1.49888798944430       5.46735422000773
F         0.65028940784950      -2.96215735031495       4.65676435449233
F         0.59339140211181      -2.26212819808929       6.92947974509698
F         0.53788377805480      -0.65289911156678       3.98112754575750
C         2.56062628895868      -1.47477475375199       5.36924969716064
C        -1.39747480441520      -1.70874568560023       5.28646843730183
C         0.48285880243727       0.24107981902178       6.46282668428439
C         3.27648263164500      -2.45287777794056       4.37866757118472
C        -2.15481420189444      -2.63008120790230       6.28539781625557
C         0.36647726644319       1.62694540687812       5.74629378279077
F         3.13408206332554      -1.76104684190030       6.58427675407594
F         3.00451517629650      -0.22244764582014       4.98676997049799
F        -1.66854190270289      -2.26687387574043       4.03655510152003
F        -2.07489936290694      -0.50784700116642       5.28826768374252
F         1.60637151015069       0.35904661237745       7.25210761396719
F        -0.58961595390211       0.19489135931297       7.32730460088199
F         4.60436544698451      -2.14595578462305       4.33438009390299
F         2.80586048743695      -2.33738554439813       3.10069215233997
F         3.17412456058308      -3.74247267878038       4.75814378856982
F        -1.65089108397933      -3.88384644005869       6.27758353827397
F        -2.12721237364512      -2.14827216223002       7.54389828656161
F        -3.46971288146334      -2.71127521595367       5.90570458538591
F         1.43001832708939       1.89471140962812       4.95122973898419
F         0.30125999125736       2.60942355034749       6.68544162269011
F        -0.75212628567774       1.73266451220078       4.97708648969158
