43
C11H21F2N3O4S2 optimized with ADF in AMS.
N        -1.69238295778249       0.89030365998441       0.23205045551687
N        -3.04852217499042      -0.76434318400722      -0.14166069745548
C         0.72196694339628       1.29622116363580       0.65121218366756
C         1.29104445211291       0.13443888325708      -0.15814456954900
C        -0.58409077685381       1.84548357070357       0.08401232817599
C         2.50950903160391      -0.50513732056468       0.50549731663533
C         2.99698256897785      -1.74631029741842      -0.23975390317546
C        -2.06434013079937      -0.02605592378265      -0.67183892952533
C        -2.45184817777648       0.71822025841641       1.37222261262286
C        -3.31050824868081      -0.31571773608833       1.13386177546265
C        -3.72192268774569      -1.88882655255211      -0.80879251064071
C         4.15990359789403      -2.43782295634998       0.46700145489450
C        -5.06847619407083      -1.47602911955155      -1.37626835145066
H         1.44256099068306       2.13243924565232       0.68754970173395
H         0.54752609993898       0.96421515173392       1.68806229276647
H         1.55162711259216       0.47993159646712      -1.17836373122221
H         0.52317496875071      -0.65019406547975      -0.25840035277855
H        -0.89898625707357       2.76647971363067       0.59598563263488
H        -0.49552268265503       2.07213248654539      -0.99008031783688
H         2.23170020296186      -0.79077629821981       1.53558734284774
H         3.32959324518100       0.23383868378856       0.58435253817457
H         3.29285311975690      -1.46780746522042      -1.26873355129177
H         2.15259938688625      -2.45299691277848      -0.33150730143707
H        -1.62954435478618      -0.16057483991869      -1.65337517291584
H        -2.27997933031164       1.30367642497577       2.26655858222479
H        -4.03567810611432      -0.80908589395536       1.77090076756333
H        -3.03440078319856      -2.25488571125396      -1.58489481929669
H        -3.82365675568318      -2.69066736396034      -0.06582960927987
H         3.86008275501243      -2.75949022739912       1.47681300477227
H         5.02362654839596      -1.76101814806997       0.56880000973965
H         4.49267032424441      -3.33027011673697      -0.08511247039679
H        -5.73885704254037      -1.12654719012801      -0.57763763677156
H        -5.53892978789279      -2.34642425307000      -1.85657424860352
H        -4.95908720376649      -0.67725679167572      -2.12493689145563
N        -2.23128940415465      -2.44424162459532       2.68539223202903
S        -0.66792054333159      -2.46148598007798       2.35772061424039
S        -3.17991775007612      -3.69953154730244       2.35357645343127
F        -0.65980991465516      -2.43276717473633       0.66650002957354
F        -3.00907329488184      -4.65810644470892       3.67112393842695
O        -0.14870342741758      -1.14706571166408       2.70281699754481
O         0.07547786382564      -3.66222943663623       2.67310039546013
O        -2.77820497785208      -4.52832021926705       1.22991500997382
O        -4.54796360312329      -3.20256898432111       2.42461000776965
