35
C9H18F3NO3S optimized with DFTB in AMS.
N         0.71528759548116       0.28545255195403      -0.22268394603519
C         0.34817589551113       0.73926983937273      -1.60355972218928
C         0.73235140590703      -1.21049885333300      -0.32608690822795
C        -0.66906120836671      -0.27877307487970      -2.10356940322055
C        -0.34363535928872      -1.57540870367043      -1.34726705444483
C         2.05512112514673       0.85280201753760       0.15294133437113
C        -0.32361490043485       0.72223208490396       0.74362379775397
C         2.60233013338760       0.32697908621228       1.47703910566615
C         4.04688995254894       0.79918847182047       1.64250164370586
H         1.25560571386862       0.70030138906881      -2.20904355016805
H        -0.02950297481044       1.76135230900952      -1.56202884065797
H         0.55204183722002      -1.64290222901198       0.65806551144707
H         1.72252701649941      -1.50460335734398      -0.67527295963663
H        -0.56570416961854      -0.40796279102977      -3.18174958778060
H        -1.69038376671736       0.04883130986073      -1.89463312698618
H        -1.23495243038175      -1.97307007614046      -0.85743907858898
H         0.04543966780181      -2.33790905321880      -2.02384220868823
H         1.94055017635107       1.94006985530711       0.18187613619792
H         2.74086226996728       0.58995024921811      -0.65397684522407
H        -0.33855421581093       1.81024997176894       0.78139318978431
H        -1.29305137921189       0.34964656878220       0.42015259135896
H        -0.08981434501409       0.32157897738070       1.72741414108100
H         1.99564164719099       0.68085135336522       2.31641590223808
H         2.59202457971323      -0.76486028013325       1.47362127343581
H         4.43241442000219       0.46460156029691       2.60480579737354
H         4.66511402058339       0.37645792793980       0.85095166070809
H         4.10666541179250       1.88736351277418       1.59834643555802
S         3.97356223859703      -1.33538959719642      -2.05293977498976
O         3.84150274825381      -1.51638579849719      -0.60950977459469
O         5.30676475470589      -1.09479781303020      -2.52933909469015
O         2.93858714939109      -0.46062148325651      -2.60459101687662
C         3.47616550249207      -2.99289298022827      -2.71729635126292
F         2.21567471594054      -3.24625741222188      -2.31851817026931
F         4.24649398492741      -3.96922430919220      -2.26192362266470
F         3.49056193507436      -3.02337394778925      -4.04230502938323
