40
C10H19F2N3O4S2 optimized with ForceField in AMS.
N         0.34738833307300      -1.61146610907426       0.31357030348602
N        -1.77500723720567      -0.95288839468514       0.27672476007334
C         1.74946590065625      -1.71775563561362       0.70940474017599
C         2.62118848205382      -0.75266301600769      -0.10413155120423
C        -3.01086661373430      -0.26204597786471       0.63860890900815
C        -0.63219756575865      -0.98028516002281       0.98879197526052
C         2.23200517700355       0.71352715361708       0.14024606176401
C        -0.19583156082966      -2.00698180830501      -0.85541485689790
C        -1.51445146558101      -1.60146195792907      -0.87681868648700
C        -3.25111062670260       0.95127393701847      -0.26932866797676
C         3.20402163763153       1.66805186244285      -0.54460230696915
C        -2.13148966076548       1.98546745305735      -0.15525423570441
H         1.85903084078640      -1.49287039335176       1.79343952201690
H         2.09816796890036      -2.76041915139768       0.54625093381666
H         2.52680339022247      -0.98982466315212      -1.18629445377867
H         3.68078662616399      -0.91110585034859       0.18854118293425
H        -2.96397459573359       0.07441010536765       1.69798623962533
H        -3.86443075561483      -0.96719470332494       0.54652203364714
H        -0.49971871044757      -0.50124624216904       1.95117223024503
H         1.21258300993596       0.90252581228223      -0.25848027971032
H         2.22504365176053       0.92874438161360       1.23020540825262
H         0.33557252807513      -2.52194326014873      -1.64518769197548
H        -2.21931601027796      -1.73945377644747      -1.68617988445941
H        -3.33991457712787       0.62031113361342      -1.32656964062154
H        -4.21124242267715       1.42981682782818       0.02010837069045
H         3.21557462382331       1.48619171554723      -1.64028238902682
H         4.22800969776069       1.53355917746945      -0.13689672852771
H         2.88452451241969       2.71547779980038      -0.36035810770247
H        -1.18303298326714       1.57483817900516      -0.56086606765675
H        -1.98001373675559       2.28033710958289       0.90504965957827
H        -2.39982462061684       2.88904443208344      -0.74200929051116
N         6.68058743140635       1.89262227194529       2.87164556160734
S         5.77170641684923       0.53376217994777       2.80950555705696
S         7.03809778182109       2.61170313404471       4.29680501331861
F         4.16654409915692       0.93326306304183       3.06169228575596
F         8.11088426684776       1.64906104950528       5.14784773170796
O         5.92149710984608      -0.10791482557529       1.45977189854751
O         6.20649659126794      -0.42780720754170       3.87967723692352
O         5.78701683966258       2.78367362275013       5.11182125166887
O         7.66589255517128       3.95236161489521       4.04068318174837
