64
C18H26F18NP optimized with ADF in AMS.
N        -0.31587658606878      -1.31236024504409       0.03201277757517
C        -0.75641250831341      -0.33970193616389      -1.04043353417603
C        -1.48884872209322      -1.61315360262846       0.95259061445554
C         0.77055495881082      -0.67472055581403       0.89694575111398
C        -1.97765307494168      -0.81824607645505      -1.81174478412223
C        -2.71854836225712      -2.10910682532103       0.21060996533005
C        -3.14815204439457      -1.12438701029582      -0.87700789783959
C         0.20261651662385      -2.58345848271459      -0.57641961146911
C         2.04493326419755      -0.27146879689809       0.18019890792852
C         3.06729049857421       0.21257868448869       1.21649540422474
C         4.46538711378889       0.36677277616486       0.62265323965378
C         5.51206414212720       0.73979484505182       1.67054267467577
C         6.92518728334672       0.78188264919271       1.09611294427158
H         0.10648112947223      -0.18183538564040      -1.70113890543067
H        -0.97369511913597       0.60619747552407      -0.51745293352987
H        -1.70876470850632      -0.66423605498569       1.46786754186469
H        -1.12255862882911      -2.33613276024933       1.69418417360642
H         0.29312150515837       0.19620128579787       1.37531742244753
H         0.99754521951157      -1.42059295105925       1.67007218291946
H        -2.24370640070545      -0.02295778108031      -2.52792685811120
H        -1.72399944275835      -1.70382719160242      -2.41817999971185
H        -2.53659780428313      -3.10929721675938      -0.21609796421334
H        -3.51702484304190      -2.24046522056439       0.95950705290262
H        -3.49447047024364      -0.18582348580854      -0.40543173399562
H        -3.99884164565973      -1.52769470217477      -1.44871597547555
H         1.01934714014897      -2.33666828838712      -1.26133791804189
H         0.57874083784806      -3.23269752535052       0.22197793409908
H        -0.60359269649071      -3.07737738379894      -1.12510025108266
H         2.48189263274224      -1.13922462281161      -0.33594351212014
H         1.86364953606200       0.52313871416283      -0.56337988599707
H         2.73328429342519       1.16679151336710       1.66462239559530
H         3.11792394060858      -0.52870991446835       2.03004204680621
H         4.45752697692990       1.12287845424897      -0.18620732105943
H         4.75436942168362      -0.59321318985546       0.15957996249786
H         5.47206051553842      -0.00046677533748       2.48884830345467
H         5.25619147852659       1.71841722856968       2.11760276272876
H         7.20802391429967      -0.20396896157219       0.69423584896759
H         7.00179248167474       1.51612067793804       0.27711101506576
H         7.66233092727684       1.05406955847601       1.86663082748934
P         3.03615423557398      -4.54318657416263       1.91186049841606
F         1.74474533628824      -5.21173241075422       1.06756121075673
F         3.39718209737556      -5.98008976080275       2.62925888161151
F         2.71651586003901      -3.03678235957278       1.20101639923306
C         4.08971534879167      -5.12019118400065       0.32778622551616
C         1.54144397368490      -4.18978182297625       3.28563341633736
C         4.46557611479450      -3.64115368682339       3.02738614381570
C         3.94419966836357      -4.34643960927585      -1.01835007287264
C         1.48815233819198      -3.21255868698080       4.50523454631777
C         5.92866157629647      -3.28508236934050       2.60607532806320
F         3.73155628259084      -6.41304443957237       0.01845205091014
F         5.44191510231379      -5.15341195098152       0.57580042909408
F         1.18858694987304      -5.40654440676148       3.80407466267328
F         0.42351902354193      -3.74098115243327       2.54912274142061
F         4.61966830458900      -4.35778206407345       4.18928826118276
F         3.94089026819968      -2.40443344154273       3.37690494869941
F         4.67706035599721      -4.96259873433783      -1.98316414039706
F         4.38677637878626      -3.06570793708589      -0.93461187674415
F         2.65290031292341      -4.31644171475977      -1.45016711507998
F         0.30089037435499      -3.39138576507914       5.16094722052466
F         2.46966520054512      -3.41186823888083       5.39862894356983
F         1.50755435300830      -1.90957673869401       4.09791942660473
F         6.73983829472196      -4.36079440283004       2.59990889994606
F         6.44193372376605      -2.40617165856641       3.51728455002895
F         5.96978592253536      -2.67385306425294       1.39675092277359
