40
C12H25NO2 optimized with DFTB in AMS.
N        -0.39930074093494      -0.25864811129534      -0.43192220777789
C        -0.05041571463733      -0.78641056491553      -1.80211040060335
C        -1.28379246015725      -1.30651165343857       0.17717304484489
C         0.81868800204158      -0.09171486526056       0.42916385993094
C        -1.04046720554811      -1.91180494104739      -2.10660136939324
C        -2.08427005308104      -1.85402387546630      -0.99122474401036
C        -1.13789712775719       1.02348445620153      -0.53959218782454
C         1.82595371066818       0.91496395003498      -0.11869145793010
C         3.17248190284349       0.70877376135886       0.58537532705739
C         4.20477079370750       1.73477027763900       0.11160644759823
C         5.55504168739219       1.51100765010894       0.79043507913378
H         0.97812377928148      -1.16665391178549      -1.75604683193519
H        -0.10824330305861       0.03428367399374      -2.51876013302578
H        -1.87965601785802      -0.86565000951281       0.97676744132184
H        -0.62372773203740      -2.08697226986500       0.56739815629054
H         1.27879424673681      -1.08071235826664       0.48120731311970
H         0.47142857340962       0.20210722214275       1.42368918077947
H        -0.51365386889102      -2.86763989102781      -2.05821811560569
H        -1.48811425180381      -1.79669966592292      -3.09496267337897
H        -2.91634092902826      -1.19346959190271      -1.25272374345050
H        -2.48369263313932      -2.84112098461015      -0.75646835538944
H        -0.51370589030197       1.75562266549170      -1.04682987832190
H        -2.05016542170242       0.86556235430407      -1.11103197609819
H        -1.38369763331310       1.37828414284673       0.46049934499757
H         1.96752741495697       0.75222287063292      -1.18950443293307
H         1.47347039793308       1.94072055078133       0.03391147448702
H         3.52702765145868      -0.30113276224707       0.35715385515467
H         3.03894387688398       0.79070775552003       1.66969003781210
H         3.84790018445352       2.74751717969011       0.33255816441088
H         4.32616225637824       1.65233742935616      -0.97358146107205
H         5.45985673669809       1.60724676293572       1.87315478507936
H         6.27827473188349       2.24711919740148       0.43828313336341
H         5.93382885913835       0.51400475148272       0.56293416153771
C         3.09031491207314      -4.24125862148231      -0.70382873519899
C         2.17342539440227      -2.99923099543531      -0.67586299939808
O         1.01148367082700      -3.15985098573370      -0.23702740412933
O         2.66449747203402      -1.92396899142787      -1.08549496995840
H         3.71252748247980      -4.22563578909760       0.19088085132147
H         2.49368714747455      -5.15131185612550      -0.70762157680082
H         3.73538597809370      -4.20643673745619      -1.57973436930507
