60
C18H39NO2 optimized with ADF in AMS.
N        -0.05914074373999       0.13900904163484      -0.29570498036113
C         0.84068082730700      -1.02641057924666       0.10228556367977
C        -0.84692209197814       0.60685944806106       0.90680137386208
C        -0.97795467115060      -0.36327571885169      -1.41665338218442
C         0.76761223668294       1.29663497689563      -0.82838567516341
C         1.87218886424068      -0.72943405656286       1.17444263052301
C        -1.83510129107310       1.73484899818359       0.65042624756963
C        -2.10083156975579      -1.27709648303945      -0.96343309736861
C         1.79644940054505       0.92729189216342      -1.88283985373207
C         2.80013943519498      -1.94119086575714       1.32084471054384
C        -2.66804782417721       2.00949904438547       1.90605874559354
C        -2.78914475566440      -1.87426886902626      -2.19442474590516
C         2.39317330464497       2.18818059001348      -2.51194489404283
C         3.84430007929282      -1.74843422841352       2.41660511367694
C        -3.66097799935559       3.15123885474935       1.70410111477135
C        -3.95455255877526      -2.77794692249757      -1.80396408011070
C         3.44008953741441       1.84605810771472      -3.56985549701289
H         1.29096658348061      -1.37202398943670      -0.84620991425902
H         0.16819964065944      -1.83949706241977       0.40677226059965
H        -0.10923173668263       0.91634725778550       1.66113534632448
H        -1.36711698877874      -0.28268102616736       1.29023582796594
H        -0.30088251188849      -0.92525795166424      -2.09655035183857
H        -1.36964134882244       0.53470736795713      -1.91826177456722
H         1.24806695572438       1.76698227371643       0.04395841255074
H         0.04449624315105       2.01540315738211      -1.24077690188622
H         1.40145557572753      -0.52238372124913       2.15191131713094
H         2.48341491269098       0.15234426848264       0.91241506488870
H        -2.51170522368877       1.47486525881452      -0.18010659353367
H        -1.30589187125076       2.65918771151766       0.36557567382348
H        -2.84625586928939      -0.74701991769388      -0.34309541514754
H        -1.68203977536999      -2.12224767461037      -0.39432679802923
H         1.35444698876494       0.28366743044441      -2.65860956396906
H         2.60701702155266       0.33143766080597      -1.43362267898468
H         3.29436136238538      -2.12921526353621       0.35189723101132
H         2.19213668247882      -2.83868223661328       1.53159355304454
H        -1.99385147815739       2.24873273731517       2.74847207846590
H        -3.21139758179722       1.09067238859232       2.19034503991449
H        -2.03234336387595      -2.46184761664593      -2.73900395419480
H        -3.14234460961900      -1.06639083551638      -2.86239302973630
H         2.84870673884936       2.82074700774716      -1.72709513800288
H         1.58624003796531       2.78835976286648      -2.97086053409298
H         3.36697210996763      -1.59654372039247       3.39861278093945
H         4.47953010123856      -0.87097184071734       2.21200760641804
H         4.50347820660099      -2.62600877199965       2.49687696906700
H        -4.36521035635369       2.92134886582041       0.88872432973460
H        -3.14010934013935       4.08685649057203       1.44496731991157
H        -4.25039551478450       3.33552857199589       2.61506879894071
H        -4.72694344150619      -2.22050041919511      -1.24833772231329
H        -3.60050617323640      -3.60380164743515      -1.16682655990292
H        -4.43095210515682      -3.22188541046782      -2.69141156304767
H         2.99648833636495       1.23385378070776      -4.37024321212053
H         4.26561700268388       1.26419159350605      -3.13048459952374
H         3.86593644124837       2.75373045564076      -4.02435523307380
C         1.20686814231613      -4.34459081140384      -3.45240294446468
C         0.74061156128418      -3.22226012684642      -2.51253046026245
O        -0.04108605395837      -3.53999561405264      -1.57413224551541
O         1.16890527120997      -2.04423841361624      -2.78174766615316
H         0.43084043233064      -4.50782463689051      -4.21764916793561
H         2.13958002304156      -4.07857693566755      -3.96946743374421
H         1.32455034788600      -5.28833406243876      -2.90094862717083
