45
C13H18F6N2O4S2 optimized with ForceField in AMS.
N         2.36698649751782       0.03354464758805      -0.51872666130247
C        -1.44947524257889       0.05933885567083      -0.71547668393636
C        -0.05217806806675       0.02811392688418      -0.08541418113435
C        -2.53156106206053       0.00477776953537       0.36784478078249
C         1.04354213639283       0.08346653515376      -1.15329733098612
C        -3.93652922292187       0.01500902894128      -0.24098262704746
C        -5.00184421464698      -0.05223930836849       0.84946873072207
C         2.95873706670783      -1.17618398168011      -0.27591416463143
C         2.98332844171345       1.19485787239215      -0.13943510253249
C         4.20217208261843      -1.24353131435111       0.35836956901773
C         4.22725058668980       1.16305843443778       0.49678228624533
C         4.83769472014396      -0.06509633358604       0.74645480615770
H        -1.56545891135148      -0.81133552413886      -1.39807067583294
H        -1.56710034515207       0.99370895082762      -1.30750950384862
H         0.06516150720043       0.89622576703206       0.60027663361069
H         0.06556916593711      -0.90646580871095       0.50618590576031
H        -2.40173336618747      -0.92261287002473       0.96847451214250
H        -2.41908642361510       0.88514631751278       1.03790967945761
H         0.93759489188107       1.01614388293278      -1.75166882776449
H         0.92353258996326      -0.76818968711534      -1.86009904626275
H        -4.08297072251739       0.94544497489834      -0.83157126265713
H        -4.05938932680231      -0.85807964411459      -0.91828696670058
H        -4.91325980720339       0.82154312497340       1.52989205097770
H        -6.01012955719723      -0.04146560708464       0.38537984289914
H        -4.89137821573215      -0.98740164832956       1.43921783234835
H         2.46581718506136      -2.09703992132522      -0.56451803027981
H         2.50995008954187       2.15272694051552      -0.31988651060932
H         4.66683311578501      -2.20207271265656       0.55080627499299
H         4.71168223673939       2.08327399633260       0.79709793120743
H         5.79970990570231      -0.10370057820063       1.24161370521900
N        -0.27849349520812       2.82773734979831       4.00475949689322
S        -0.71698026175757       1.64791843921591       5.05489433695169
S        -1.09057729453699       4.24586641648159       3.87425855819591
C        -1.78359525369025       0.49216548109386       4.22182981933427
C        -0.25533007937629       5.48700975140204       4.84096299294224
O         0.51112526555772       0.91913150093529       5.52089283352410
O        -1.43509684665569       2.23180357788141       6.23998460768649
O        -2.50516939066461       4.09654561799114       4.36213143247645
O        -1.09955173734443       4.67911719911148       2.43590619306307
F        -2.18542508902015      -0.49081371473065       5.10526055730709
F        -1.09492426771165      -0.08978929428084       3.17612249945484
F        -2.89572128009466       1.15020108950549       3.73275616390289
F        -0.93985974575279       6.68394013889399       4.75174837787776
F         1.02906990408408       5.65834106080442       4.36110054213281
F        -0.19975189909089       5.08937825455488       6.16293982314244
