49
C15H31NO2 optimized with DFTB in AMS.
N        -0.69979100410932       0.55446924668324      -0.21275134982379
C        -1.75505328240420       0.17450803302291      -1.21213730478610
C        -1.27486418388105       1.57932495445113       0.71982954254805
C         0.41317669785867       1.18505152728618      -1.01287953095513
C        -0.20951151461163      -0.62619856423623       0.58004240679744
C        -3.01295983344633      -0.36569767122738      -0.55345131731988
C        -2.56290704129908       1.12633725219616       1.40356505836008
C        -3.61274470804240       0.68000972814212       0.38604036024089
C         1.65033626890277       1.63704873263577      -0.22779893894940
C         0.26487842663850      -1.81128811711698      -0.25506677627971
C         2.83251425262726       0.66576133514474      -0.35837321935657
C         0.84816809510289      -2.88604767850577       0.66666711524594
C         4.11896526375191       1.29945492336131       0.16602788154131
C         1.33420063488147      -4.08114286206394      -0.15106873795102
H        -1.31080996929873      -0.55578739197719      -1.91083418382617
H        -1.99512941830353       1.08355890560696      -1.77066973209288
H        -1.46985764618341       2.47487673951504       0.12318193420393
H        -0.51938920653516       1.81534573849530       1.47178865091324
H        -0.03747744431944       2.04580018086941      -1.51323534551751
H         0.71047740338462       0.45609753075072      -1.78413489169287
H        -1.02417833064360      -0.94444189868048       1.23380868014527
H         0.60064240080946      -0.25848324550887       1.21429119096227
H        -2.80438652385709      -1.29022014043956      -0.00926351767761
H        -3.72469925514468      -0.60213321660276      -1.34817883963967
H        -2.93983398798198       1.97625524973119       1.97951321258628
H        -2.35852583082727       0.31716819452200       2.10974566921004
H        -3.94864259321276       1.54465313766929      -0.19581194345835
H        -4.47741163181921       0.26639071578527       0.91067687692290
H         1.42577668618437       1.80875750421923       0.82925501960784
H         1.95279645219793       2.60236241319773      -0.64730063189471
H         1.02508457921476      -1.49355791945343      -0.97080404862174
H        -0.56424857687708      -2.23241299736298      -0.82705174577794
H         2.95678134972636       0.38867909984825      -1.40909699764570
H         2.63133449242256      -0.24962998839811       0.20478164188281
H         0.08764942748996      -3.21352741296110       1.38521985885843
H         1.68657906094493      -2.46742828171969       1.23518071333277
H         4.01301523713210       1.57609180397411       1.21673286769178
H         4.36636724755986       2.19514358877772      -0.40548956920886
H         4.94297564755845       0.59195329657402       0.07476309310374
H         2.09731867232305      -3.76473879842530      -0.86263180807460
H         0.50650467758693      -4.52488219834567      -0.70494766870173
H         1.76081103089410      -4.83789795868393       0.50767887628306
C         1.09490639777032      -1.95756811588620      -4.95285938336633
C         0.68980131908524      -1.40357252812598      -3.56801493595626
O         1.57301985856664      -0.78533105292790      -2.93210732491685
O        -0.48755091435040      -1.60677527690171      -3.20354602501154
H         0.89088449461323      -1.18941626881109      -5.69861387905715
H         2.15771088263648      -2.19125081601758      -4.96684012607446
H         0.50821594398348      -2.84353336447993      -5.18802261950355
