17
C5H9ClN2 optimized with ForceField in AMS.
N         1.07377369902542       0.03264796271236      -0.01619070358036
N        -1.14778142681125       0.01855444081207       0.00332866940017
C        -0.03223514195304      -0.73606799538134      -0.01331699652683
C         0.64561344474439       1.30990066139552      -0.00016652027009
C        -0.73487676555644       1.30108767234258       0.01143066703451
C         2.45849637197798      -0.41867078234122      -0.03135202647086
C        -2.52748304206264      -0.45012174980616       0.01146559581485
H        -0.02521882239125      -1.81917479340758      -0.02238378598173
H         1.28664548529616       2.18179535153547       0.00267692068505
H        -1.38585155773015       2.16537665475721       0.02475275199990
H         2.50464468829392      -1.52856147308998      -0.04981225436875
H         2.97123638916656      -0.02325499631744      -0.93313736724656
H         2.98060948592515      -0.05098112273562       0.87687883385859
H        -3.04183728488063      -0.07998695226130       0.92305280278397
H        -3.05589532480213      -0.06972654222571      -0.88774668615821
H        -2.56212985937055      -1.56066465651957       0.00547796995686
Cl        5.47502272392850      -2.23041089526930       0.73857820496949
