31
C11H18ClN optimized with ADF in AMS.
N         2.41738418888627       0.31113480664791      -0.41164079418208
C        -1.40087715968674       0.22187365838510      -0.67105666426092
C        -0.01713020223667       0.07296284071238      -0.04645571456041
C        -2.52317466180498      -0.13787109301887       0.29881438890829
C         1.09298104828355       0.43697763956179      -1.02529016001036
C        -3.91400437682610       0.01112437193483      -0.31328553542073
C        -5.02682158256683      -0.35246782688406       0.66541343644743
C         2.99056676119983      -0.94801496996835      -0.38361250821415
C         3.12578297958799       1.41853054436177      -0.05605533936013
C         4.16455813352323      -1.08710140585565       0.42662357909883
C         4.33753599670457       1.31511175312682       0.56604191780247
C         4.83923101892916       0.01914365701888       0.85542067229801
H        -1.47091562553959      -0.41910228708079      -1.56917077226488
H        -1.53890779794098       1.26275516915593      -1.01875053665844
H         0.06681028764360       0.71772096066004       0.84695009400833
H         0.12307955223825      -0.96640934113398       0.29948486061497
H        -2.38568361445742      -1.17896708217989       0.64630102510050
H        -2.44861685015257       0.50198162149610       1.19843718276296
H         0.97927180830705       1.47523905705219      -1.37114784084351
H         1.09311658085737      -0.21302429418633      -1.91651444005703
H        -4.04730093430451       1.05169011092886      -0.66100484374591
H        -3.98323833847159      -0.62792554418469      -1.21239899021067
H        -4.99032415258729       0.29181428094159       1.55836565768251
H        -6.02157705013066      -0.23966999614456       0.20782314021969
H        -4.92585930192773      -1.39634336691464       1.00294385280873
H         2.27298896407574      -1.76459857701923      -0.42234371830795
H         2.64724980832025       2.37194485486011      -0.27261418678850
H         4.53145599937367      -2.09433227188285       0.61822232443409
H         4.87711037668136       2.21519257823054       0.85298317180337
H         5.76210661425396      -0.08854745540093       1.42732676199049
Cl        3.60753927496778      -1.39695835682002      -2.45774522909499
