42
C10H12F18NP optimized with ADF in AMS.
N        -0.38387477220846      -0.62216747049786      -0.14327329788950
C        -0.03648514258715      -1.37182826206005       1.11279037497979
C        -0.40233448693311       0.84699656723966       0.13214472691881
C        -1.74441305653181      -1.05872825873078      -0.61672129080317
C         0.64782480840021      -0.92254242360418      -1.19743334131677
H         0.94986469541242      -1.03515432891869       1.45628085222045
H        -0.80101339031645      -1.15435379769012       1.86914010295529
H        -0.02036828473242      -2.44349513822949       0.87831672025026
H        -0.66639546129946       1.37363017560347      -0.79357403285315
H        -1.14962595053599       1.05230259811531       0.90887610620345
H         0.59361306111375       1.15726884360006       0.47263732640427
H        -1.96023785196452      -0.55775628979305      -1.56815186450005
H        -1.72836421641440      -2.14267733863083      -0.75908092063461
H        -2.47977444658283      -0.77695806174296       0.14773698208565
H         0.35524262259573      -0.41480904549343      -2.12424874785644
H         1.61780832892068      -0.55218603170591      -0.84198129530961
H         0.68007616822560      -2.00498195371993      -1.35174793261807
P        -0.41290965471436      -5.16774083684928      -1.83100521095694
F         0.51816101008783      -5.98830018390427      -0.72900815620789
F        -0.41197362490394      -3.81106117591240      -0.76509490370568
F        -0.48044552693995      -6.41930544693483      -2.90753205947646
C         1.35242915990970      -4.59907296735289      -2.56957038086427
C        -1.96621461580914      -5.98646820290877      -0.89411925590673
C        -1.53385139270426      -3.96768535521299      -3.01016148853056
C         2.29311469083525      -5.71687785033501      -3.13800502482770
C        -2.42671386335101      -5.37728782628749       0.46324033998098
C        -1.89802952142156      -4.42857329085725      -4.44494241085251
F         2.07449303783997      -3.98464263935908      -1.55402668540667
F         1.30239239256175      -3.67828042854338      -3.59773043569372
F        -1.63308756993591      -7.28809427988423      -0.59506950155261
F        -3.08917035112458      -6.06389060897671      -1.68620106706208
F        -0.92889573785615      -2.72466068538587      -3.17035781981090
F        -2.73566590504917      -3.67320789827357      -2.39118992948883
F         3.50122537044410      -5.14606403055469      -3.43340641274087
F         1.79525187898281      -6.22745624845663      -4.28615405963135
F         2.52047669826655      -6.72270677645897      -2.27278722722205
F        -3.41197169011979      -6.13890417185446       1.00624638247051
F        -1.40931243659568      -5.31997278491606       1.35664682808842
F        -2.93015908800986      -4.11629541605978       0.32181344150021
F        -2.58310019812202      -3.43134836951209      -5.08347056697788
F        -2.68564546535735      -5.52173386825913      -4.42620983449508
F        -0.78721751367499      -4.69180488219135      -5.16736489576596
