40
C12H22F3NO2 optimized with ForceField in AMS.
N        -0.52126700882961       0.01166249515008      -0.00032218548443
C        -1.44067830851057      -0.56593943560568      -1.02875789805531
C        -1.42147382126850       0.61395413931028       1.03077889222601
C        -2.85032053782780      -0.09009210776625      -0.73334436201286
C        -2.84202125783806       0.16514108255366       0.74774530581454
C         0.32700207880811       1.07730854197169      -0.62821619354183
C         0.29926080121712      -1.07658711816551       0.62553993066999
C         1.35083549342209       1.72723031457520       0.33410172540783
C         1.30758801694458      -1.74906770163603      -0.33719119562418
C         2.05673363401277       2.90585933066887      -0.32937795924524
C         1.98621239124910      -2.94344853050349       0.32533829959303
H        -1.16177830519613      -0.29235577840037      -2.07183081899209
H        -1.46427846815734      -1.67956426210121      -0.99563620846625
H        -1.14064656933305       0.34175817977727       2.07368828828707
H        -1.42319263869184       1.72761400451251       0.98992889674577
H        -3.05312723862495       0.85693094363600      -1.28067897962290
H        -3.61128031450255      -0.85209327381537      -1.01104752582525
H        -3.05821942478714      -0.77764373479361       1.29718507017522
H        -3.58566452320343       0.94186590511273       1.03165520810661
H         0.87914375329498       0.67254240613458      -1.50507117914529
H        -0.32869137040387       1.87881821618282      -1.04164699149711
H         0.86150755586736      -0.68701385094333       1.50291850084632
H        -0.37608316345467      -1.86267106784700       1.03704816685514
H         0.85305583353570       2.09040662766530       1.25683562550353
H         2.12930178055696       0.99347764926892       0.62756810320109
H         2.10323672559540      -1.03306099832424      -0.62806909698262
H         0.80283436441413      -2.09971294501921      -1.26115578818480
H         2.61291951952437       2.56451068602808      -1.22834732088439
H         1.32005943007220       3.68276456628522      -0.62435001966401
H         2.77880068958428       3.35551409780959       0.38455893451368
H         2.50938961653427      -2.62532087561010       1.25220199710079
H         1.23770933590577      -3.72566525006921       0.57311015970573
H         2.73491228560404      -3.37442864670786      -0.37162935443426
C         2.05110077452509      -6.92394217613632      -1.19918336142710
O         2.86026942973021      -6.06347353472842      -0.89167725866289
O         2.12813605957752      -8.03173240873267      -0.69284209905141
C         0.96780846920459      -6.63072033971280      -2.19436285742395
F         1.08754653653136      -7.48944096645858      -3.27198609965773
F         1.06131890592908      -5.32487916797832      -2.64482390397741
F        -0.26737385001160      -6.81510548658725      -1.60020642178905
