54
C14H26F6N2O4S2 optimized with ADF in AMS.
N        -2.60432859240133      -0.03524094788280      -0.60746182400675
C        -3.00262373734649      -0.88950320590129      -1.82151928176060
C        -3.81828276828534      -0.10660328927459       0.30098204715929
C        -1.41109177619866      -0.67190151707495       0.10130701766599
C        -4.14832634900803      -1.80454891460457      -1.35941600434947
C        -4.32031976577964      -1.52954078206920       0.14327751878259
C        -2.30563212137920       1.37898561306894      -1.03626730881587
C        -0.08955930786932      -0.51790165425807      -0.62765532385538
C        -1.93738152179207       2.30663064702530       0.10456464200699
C         0.96751301576507      -1.41760729159627       0.02041756570490
C         2.24965615704806      -1.49438046240411      -0.80183852258056
C         3.24439485105141      -2.50511817976587      -0.23612562738426
C         4.51079992386355      -2.60940473816514      -1.08048007132305
H        -2.11992370434358      -1.44914026005200      -2.15527811192449
H        -3.31223989425980      -0.19227720185401      -2.61228284779719
H        -4.54572295140741       0.62060794264157      -0.09582480798518
H        -3.52872186237155       0.17860467018645       1.32034471306084
H        -1.65872262063262      -1.73936780661673       0.18119053646203
H        -1.37398639598456      -0.23550769373692       1.11075211515681
H        -3.89704397245201      -2.85833348488571      -1.53831205727333
H        -5.06933104826236      -1.55565098534614      -1.90845010320608
H        -5.36479901770105      -1.61855029683159       0.47437241025833
H        -3.72856783490150      -2.24260061437221       0.73587665120536
H        -1.49496768502792       1.31262142893590      -1.77579400086652
H        -3.20933156747889       1.73301872868063      -1.55518152861606
H        -0.20132175281699      -0.83500166481217      -1.67692255551125
H         0.26139227281727       0.52850098062068      -0.62113391965547
H        -1.73496974387783       3.30401730848363      -0.31266646504578
H        -2.75452180113881       2.41069172438508       0.83271142729029
H        -1.03073607402097       1.97894114683739       0.63065085608655
H         0.55753371757863      -2.43337280963756       0.11833614981679
H         1.18867930028938      -1.06913725568289       1.04645922021806
H         2.72250460324544      -0.49514515536326      -0.86675164551894
H         1.98631366437582      -1.79571287515121      -1.83250448135239
H         3.50521958971092      -2.22750059690425       0.80232098137083
H         2.74928629797328      -3.49058716763106      -0.18940955612427
H         5.03773819779548      -1.64200954256777      -1.12946496918610
H         5.20761396395301      -3.35528524054179      -0.66966732368819
H         4.26316923160355      -2.91123387910792      -2.11109618244463
N        -1.64165788376392      -3.85345284585581      -0.78910854787300
S        -1.95594154381289      -4.96620653868827       0.34671344112709
S        -0.61157632860354      -4.09456354614050      -2.01363118442980
C        -0.70032761065996      -4.63417657397593       1.72216411238527
C        -1.42844914737681      -5.35184972821464      -3.18678014367237
O        -3.21191128319014      -4.55954917878339       0.97353809192036
O        -1.72275602581107      -6.34749584404601      -0.04358556157067
O         0.67839302866594      -4.67818521510001      -1.67165212212054
O        -0.65200456641792      -2.85546129706444      -2.80143671820643
F        -0.96931937898036      -5.44742803334040       2.76808850120114
F        -0.79956773248592      -3.34216079044634       2.15622562260546
F         0.56852848055131      -4.84676792977588       1.32026539986212
F        -0.96985652481535      -5.11404084681013      -4.43972923614031
F        -2.77705074315490      -5.19801334788139      -3.18780876499215
F        -1.12909510067746      -6.61718537745039      -2.85336524127002
