39
C11H21BF4N2 optimized with DFTB in AMS.
N        -0.83519710654219       1.52634659413105      -0.15958402646441
N        -2.13948148928058      -0.16903675844786      -0.39055919367734
C         1.48534627577177       2.20713681626945       0.29627652797609
C         2.09090125684055       0.86604524732181      -0.12602201335396
C         0.19622142287648       2.51217495331487      -0.47189742944925
C         3.39130356379060       0.57742622425328       0.62711546044839
C         4.01318971212652      -0.73616134702241       0.14246284972070
C        -1.33147561637516       0.66324106209358      -1.03986939694655
C        -1.33307568221569       1.23604770721120       1.08473347840294
C        -2.15622995095831       0.16457393800187       0.93605666874043
C        -2.74792761568513      -1.34847002632101      -1.00315197677958
C         5.30333349763329      -1.05566401472912       0.89549987734821
C        -3.70291626469192      -0.94675274662933      -2.11890117482094
H         2.18993283908694       3.01745336992481       0.08496912964256
H         1.28107908856167       2.21272437453710       1.37200819628414
H         2.28695335712883       0.88593184184695      -1.20132874605165
H         1.37255440851740       0.06363959070438       0.06254869385532
H        -0.18437353792317       3.50481115338700      -0.21255132241082
H         0.37357032586303       2.45480186634453      -1.54936597132904
H         3.18828755917316       0.51537073782814       1.70280605034128
H         4.09964215914203       1.39866281373808       0.46843533261761
H         4.22549955325352      -0.66142453329015      -0.92865019063731
H         3.29621113507835      -1.55102549368956       0.28460536070868
H        -1.11712732719878       0.64460039751002      -2.09484371968675
H        -1.06997685790285       1.80539111674623       1.95865470722095
H        -2.73892539405529      -0.38077520117980       1.65774145471750
H        -1.92737746079202      -1.95267432545057      -1.40376511617126
H        -3.26527201460785      -1.90146811182641      -0.21565080556180
H         5.10875843866871      -1.15751884720408       1.96456122856322
H         6.03812247969801      -0.26181159256674       0.75153242943549
H         5.72753976841153      -1.99103432195931       0.52973966813604
H        -4.45137717201300      -0.24299840952595      -1.75462328337708
H        -4.20405414435700      -1.83857642439477      -2.49228741338079
H        -3.14646766457224      -0.49279711949252      -2.93747808451828
B         0.38623406791738      -0.89718651547260      -2.81401528096577
F         0.79678082377072       0.46005269128143      -2.84985697566705
F         0.25371837747749      -1.25297899791354      -1.44023253526789
F         1.25818882629068      -1.71700043472534      -3.46115321625689
F        -0.91902847130746      -0.95880724200471      -3.36380423438513
