42
C10H22F2N2O4S2 optimized with ADF in AMS.
N         0.79594940097426      -0.35979021174772      -0.12487768683502
C        -0.04731556029304      -0.50496414903104      -1.38242596757318
C         0.85489976130354      -1.71784250570919       0.56555887558824
C         2.19652841682799       0.03642156011885      -0.57446308016223
C        -1.44063979652985      -1.04471907944334      -1.10497749309779
C        -0.52001018408083      -2.28445058201967       0.88076486293280
C         0.21505462269297       0.66273787809125       0.82812540037661
C        -1.38104460753998      -2.38848914988700      -0.37697420532547
C         3.20446225838003       0.26727676291232       0.53765510778112
C         0.17703547285800       2.08222919214679       0.29856193709946
C         4.56600681768009       0.58155324629756      -0.08620722529911
H         0.51592350073703      -1.18549813968474      -2.03919404408070
H        -0.06903446342348       0.48012946877256      -1.86821797895206
H         1.46485818049446      -1.59343344126759       1.46953247899082
H         1.38977091595323      -2.37929187730858      -0.12936738801611
H         2.07390999192415       0.93514330616949      -1.19790500739883
H         2.54396414832356      -0.78728070168671      -1.21726306098072
H        -1.93643257230969      -1.15908875097720      -2.08360393192722
H        -2.04427263464475      -0.31379550092248      -0.53787279765240
H        -1.02749672204628      -1.69131176298555       1.66142983095053
H        -0.34969351492275      -3.28413734204579       1.31438048272635
H        -0.79631584048138       0.32190053203502       1.07728049695511
H         0.82124100509017       0.59914536493687       1.74313631050062
H        -2.39641666943113      -2.73059171314552      -0.12061781812577
H        -0.93692499426298      -3.13999624293663      -1.05062558914337
H         2.89714714622801       1.09474656843621       1.20023258914427
H         3.31437849433407      -0.64338112388013       1.14705065518734
H        -0.28458952249978       2.71792085873948       1.06940067192378
H         1.17877497551654       2.48365704952819       0.09518196571347
H        -0.43555840601514       2.17481357042571      -0.60917229249554
H         5.31387602556709       0.75218061139479       0.70031964267822
H         4.90468574173876      -0.26652347646009      -0.69871353815922
H         4.52096982561356       1.48201147397353      -0.71896789361982
N         3.30039885658670      -2.75448711557141      -1.70471497908260
S         3.88210668214677      -3.74302230054102      -0.56869930809873
S         2.42711696155719      -3.27145333696432      -2.94537846801158
F         5.01388212927725      -4.63281987143365      -1.34643576568924
F         1.03110847598231      -3.85772451794376      -2.21096337322199
O         4.62230099913952      -2.90424930112765       0.35719498461011
O         2.92436597937176      -4.71242562824794      -0.06635375542838
O         2.93390017464831      -4.40533103589405      -3.68388615713640
O         1.94195298033376      -2.07683579331580      -3.62387550604538
