30
C8H8F6N2O4S2 optimized with ADF in AMS.
N        -0.65055049071349       1.88246467474081       0.13199887088387
C         0.04999222666379       2.10019207065492       1.26472137601676
C        -0.11650592860420       1.17385462721980      -0.88502848309560
C        -1.94305564169120       2.56181902900004      -0.05877982160293
C         1.31752801495203       1.57652448954454       1.41904127637914
C         1.14745247068383       0.62984839493715      -0.77682234568023
C         1.87893979303950       0.83087374368915       0.38828067277487
H        -0.43018090330764       2.72647836542194       2.01283399515537
H        -0.72142339717030       1.09577080735885      -1.78543483589824
H        -2.56469405779197       1.95789121974534      -0.72885390546184
H        -2.43476678680434       2.66561532292779       0.91466440115659
H        -1.74057925554796       3.55604803151102      -0.49522737157305
H         1.86614593739726       1.78476115062586       2.33722983026674
H         1.56014567857807       0.08375719663943      -1.62413816908054
H         2.88948494378079       0.43152995423273       0.48262517122986
N         0.93558996051051       6.01290714827177      -1.94101382936837
S         1.59057175528579       4.55741512179051      -1.91898913135161
S        -0.41243126640921       6.39315425852689      -1.14244289523602
C         0.77325995930370       3.61043105459246      -3.34265868888351
C         0.06160547484038       6.47077405772224       0.71287545287470
O         2.97214221255524       4.64056149737335      -2.35929099686321
O         1.25498165026427       3.74570160569537      -0.74276133787826
O        -1.47966729918068       5.38393366412473      -1.16829900154399
O        -0.73476892576127       7.77074170985458      -1.46458422254527
F        -0.55674539667042       3.39189962790608      -3.12843014117543
F         1.36477694424296       2.37829058087377      -3.44766499761792
F         0.91439550626120       4.24801476467796      -4.51739132601725
F        -0.70236582306196       7.40884103288499       1.31638516837150
F         1.36051284101215       6.78390030110893       0.89401968451404
F        -0.17944995295682       5.28209687834704       1.34771015124982
