56
C16H34BF4N optimized with DFTB in AMS.
N        -0.18483977502964       2.53639387767734       0.72622158592135
C        -0.85674506981278       3.67231116913753       0.01212409470579
C         0.38132808969668       3.19856138496533       1.94183346065122
C        -1.18157464362124       1.48402595471446       1.10570588678131
C         0.91663756165442       1.98916971241609      -0.13845219890128
C         0.10439818672307       4.84313856485236       0.16159498011187
C         0.88601022981870       4.55843949591966       1.45534910231502
C        -1.81570965000082       0.78777891959661      -0.09737152046199
C         1.66853181208338       0.79085803199125       0.42908491972553
C        -2.83291650559015      -0.25160992980147       0.38249941181015
C         2.63607664050138       0.29041068487239      -0.65236431871706
C        -3.47718584936948      -0.95889782125709      -0.81390191921617
C         3.38246350661590      -0.96359847390498      -0.19108047778248
C        -4.50108218230551      -2.00247948829731      -0.35800078500514
C         4.33862526858880      -1.46553725990159      -1.27777009316594
C        -5.14472674968923      -2.70585199519828      -1.55185899107232
C         5.08531678019596      -2.71985648066460      -0.82738440832775
H        -1.04410872678265       3.40164086221983      -1.02660011551668
H        -1.80240492468141       3.86778839045204       0.52365608803564
H        -0.42962126790364       3.31741515792654       2.66451121411322
H         1.15954093094875       2.57256543959872       2.37753896994431
H        -0.66978141791193       0.76419914838789       1.74958179279406
H        -1.95356077002618       1.98221204458697       1.69997004286750
H         0.46287414469176       1.71072319875711      -1.08805337527175
H         1.61026377354046       2.80826666910012      -0.33028635807432
H         0.77201286781048       4.89165263874439      -0.70120111507576
H        -0.44742171772706       5.78236237412045       0.22085834129621
H         0.69942669974638       5.31894404978902       2.21582757349376
H         1.96039347352688       4.52754328248716       1.26434978187092
H        -2.31528556748542       1.52094465246360      -0.73395026639083
H        -1.05395490183936       0.29297526461726      -0.70321497554334
H         2.22635459074764       1.05821088363148       1.33250796721897
H         0.97865494779931      -0.01788152901231       0.68340585318016
H        -2.33310124851841      -0.98864608891226       1.02161146771837
H        -3.60773652728190       0.23986425834398       0.98192163974519
H         3.35474006010253       1.08105827733287      -0.89100909144436
H         2.06683202548729       0.06974896773762      -1.56104292002113
H        -3.96813400466594      -0.21664118979333      -1.45115444152797
H        -2.69755650181279      -1.44530501842761      -1.40881847819150
H         3.94797786346212      -0.73970338090420       0.72075194081557
H         2.65882424673144      -1.75008608643668       0.05029322507267
H        -5.27875056425562      -1.51419888957117       0.23973793551135
H        -4.00722076505403      -2.74456242428302       0.27917216586186
H         3.76996200017698      -1.68679466373399      -2.18671041362816
H         5.06090638862304      -0.67825566328100      -1.51837018581446
H        -5.65960755740506      -1.98439888078933      -2.18752768352353
H        -5.86888117539321      -3.44404309312089      -1.20615729929001
H        -4.38690891364940      -3.21482704070602      -2.14885278995773
H         4.38247196830607      -3.52344649970578      -0.60260665722331
H         5.75789795065348      -3.05762056554461      -1.61607929557621
H         5.67477554037069      -2.51443355069902       0.06757195228294
B        -0.49171557450136       2.27965181575815      -3.19563211383731
F         0.38815619244796       3.23640047958033      -2.60875033945906
F        -0.05585244477434       0.99627190268004      -2.78016993866135
F        -0.52258299524182       2.39275970462898      -4.55216521579797
F        -1.76707747922115       2.49738881985901      -2.61431349726809
