55
C17H35NO2 optimized with DFTB in AMS.
N        -1.07084137567842       0.63206002075033      -0.04222927607007
C        -1.54842545823871       1.59991012338217       1.00616272396277
C        -2.09413831881053       0.57156354389808      -1.14361263472408
C         0.18541736568973       1.17214165508346      -0.67021455254080
C        -0.83229541604591      -0.71228548603029       0.59353055145908
C        -2.94767857560219       1.29008591938771       1.52741569743045
C        -3.48694045406715       0.21034977854755      -0.64955144884340
C        -3.96195341224153       1.22061624184475       0.39002622904402
C         1.40279238657316       1.24609193486080       0.24927283716331
C        -0.42718983947008      -1.81481896970600      -0.37828475769805
C         2.56631115571950       1.90171908615064      -0.50463383312480
C        -0.04672547123236      -3.06657055732636       0.42127520340613
C         3.81299557572460       1.99018340191223       0.38138696779012
C         0.42491580296133      -4.18591853219116      -0.51021282414612
C         4.97805269586454       2.63788303251171      -0.36423597858565
C         0.78029835373724      -5.44542836376395       0.27818537333374
H        -1.52608083368536       2.59530668210944       0.54982805986933
H        -0.83056230186341       1.57238243834797       1.82815102387558
H        -1.74336255146872      -0.15545074358522      -1.87782777099567
H        -2.10379928694402       1.56190000378897      -1.61156427253221
H        -0.05364646373323       2.17299291673066      -1.04138048002531
H         0.41376486928659       0.53779988161199      -1.53008219164662
H        -1.75532620481015      -1.00824977034458       1.10387845834104
H        -0.06562849856866      -0.56580927514792       1.35708234524453
H        -3.21403550202370       2.08927109200011       2.22462381537228
H        -2.95095392148378       0.34234241218841       2.07641142043432
H        -3.48704695479331      -0.80356049819489      -0.23309015464972
H        -4.15125256669660       0.22142316878920      -1.51789425033799
H        -4.08169974777570       2.20807429872339      -0.07222850225437
H        -4.92989456639137       0.90824667535530       0.78767702635820
H         1.17627266340682       1.83354382311837       1.14274293711806
H         1.70560260642997       0.24563873790188       0.56631186565456
H        -1.27764566345068      -2.06699960337272      -1.01645158870036
H         0.41419542997573      -1.50908760311001      -1.00919627509893
H         2.27331648982256       2.90658263096824      -0.82772101980545
H         2.79455864770751       1.31517839854940      -1.40098305474944
H         0.74478188729667      -2.82431450214952       1.13938103457617
H        -0.92599077719540      -3.40419903116484       0.97584082720072
H         4.10023864068586       0.98418576409272       0.70457138924770
H         3.58105305777072       2.57629492218255       1.27689284321426
H         1.30092485982072      -3.85069991704682      -1.07811021928427
H        -0.36962856045735      -4.41887030119915      -1.22660754193333
H         5.85226927319300       2.68907311346199       0.28466876373431
H         5.23592793605576       2.05599899496691      -1.25008077515173
H         4.71707254817892       3.64983835064491      -0.67693636785125
H         1.10790266790104      -6.23331273486869      -0.40083704115961
H         1.58460786201235      -5.23993593810879       0.98651723583465
H        -0.08761689056354      -5.80296404973956       0.83337749105189
C        -4.31972896305025      -3.66600935384695       2.32274390127712
C        -3.43326696667795      -2.55877052303923       1.70620596616442
O        -3.19336276869503      -2.65369559086752       0.48160503635578
O        -3.02427044649954      -1.66141515902084       2.47355963772372
H        -5.24840497197261      -3.73035114607543       1.75731577337339
H        -3.79809468138212      -4.61914563067626       2.24411056331494
H        -4.53261833864503      -3.44798141908511       3.36732492428264
