65
C19H25F18N2P optimized with ForceField in AMS.
N         1.37695394661166       2.26332936438626       0.04289125304691
N        -0.82885396008324       2.43358684311854      -0.18931204013243
C         2.75272787544176       1.84908171444283      -0.22400483729713
C        -2.17126367873893       2.26068058489778      -0.74343222566833
C         3.02461960908581       0.44869952501684       0.34411810112804
C        -2.43988476019907       0.78844866176934      -1.08855341087022
C         2.10499530001288      -0.61316119107067      -0.27932359612901
C        -2.38130257425962      -0.11737357292318       0.15029388794951
C         0.33789569098762       2.17082867170656      -0.80915345023879
C         0.85182828490231       2.60328229744040       1.23712379483262
C        -0.51580769712829       2.71691069087533       1.09145526526671
C         2.46082698242136      -2.01770126585792       0.21697475715773
C        -2.57855009248560      -1.58793209011155      -0.23326813872620
C         1.49836745264959      -3.05800818263606      -0.34963845624832
C        -2.51139806112035      -2.49086887396193       0.99555985587929
H         3.45247779008724       2.57917359997913       0.23697144824414
H         2.94362744970214       1.84746564374143      -1.31997036599224
H        -2.26645684178628       2.87636600764000      -1.66377919561304
H        -2.93506030846786       2.61575701943679      -0.01732415865205
H         2.88377767387571       0.46407506803517       1.44710714342039
H         4.08495503180034       0.18623031754924       0.13688027658586
H        -3.44642379085738       0.70949155981053      -1.55377257575770
H        -1.69483279235639       0.44665757847927      -1.83557077282958
H         2.19570839972470      -0.57941544710053      -1.38759871732925
H         1.05052648460888      -0.39618512754729      -0.00395033077249
H        -3.17327566873268       0.19051194171678       0.86764364877894
H        -1.39370721960466      -0.01018323339625       0.64850548471434
H         0.42257359698201       1.83650559863992      -1.83443612363740
H         1.41275990194480       2.70183857958359       2.15758297661510
H        -1.23253337915108       2.92065803913088       1.87626367147054
H         2.40900580854937      -2.04838935733079       1.32730346631066
H         3.49621327645237      -2.27394970636786      -0.09601093217891
H        -3.56699239312459      -1.71931373593478      -0.72463194770498
H        -1.78570767289650      -1.89676415909632      -0.94928818552206
H         1.53128837799541      -3.05173572981531      -1.45999934994311
H         0.46169116975309      -2.84575907103741      -0.01411224106589
H         1.78632874740323      -4.06787402331943       0.01065716191924
H        -3.32696638019792      -2.23635941703547       1.70535296334190
H        -1.53245626847540      -2.37640101836326       1.50812713382574
H        -2.62696268312580      -3.55079543158520       0.68546195672289
P         1.36787712802538       0.43939735610147      -5.81123021393753
F         1.77255951459570       1.00322137266882      -4.23531823138387
F         0.83094538814361       1.73208727431478      -6.81707393823630
F         2.14074222462391      -0.92373164740751      -5.10077811010788
C         3.02163511281672       1.38662274860033      -6.17197716085383
C        -0.30040055435636       0.61807550079124      -4.84579960044935
C         0.96023077348952      -0.94749960584744      -7.09348979046218
C         4.29846776061018       0.90825763361257      -5.42864057079661
C        -1.60546175152346       0.39225414098241      -5.63811217161058
C         2.10379658942635      -1.41338142838323      -8.01411224402579
F         2.85612004977568       2.72535149821288      -5.83851068397720
F         3.29317734635646       1.34634778431992      -7.52477559813398
F        -0.40315559010188       1.90319753918796      -4.32081525735446
F        -0.30124871860901      -0.28810242476347      -3.79522346064948
F        -0.03712682678017      -0.49232756696392      -7.93683354090221
F         0.46545472137820      -2.06484495392510      -6.43470490820589
F         5.38433099539031       1.61693296720779      -5.91190311874724
F         4.55179200656613      -0.43128509783632      -5.63037510936526
F         4.21629744542124       1.14901514319785      -4.06875527861787
F        -2.67766690065067       0.73721549138835      -4.83313727320427
F        -1.65652924414752       1.18645692000464      -6.76812681066430
F        -1.76585786404284      -0.93348832504427      -5.98796542690080
F         2.39933545732625      -0.44780843550995      -8.95708376531913
F         1.69382732315582      -2.54536340686470      -8.69627412657022
F         3.23882752130981      -1.73878851145051      -7.30568754592518
