50
C12H28F2N2O4S2 optimized with ADF in AMS.
N         0.50376666322920      -0.04073948782743       0.01020487959722
C        -0.43776184449776       0.54225483906726       1.04285638621931
C        -0.26314933571091      -0.71949038223505      -1.10621127111831
C         1.41692627141786      -1.05934147964929       0.70761396360310
C         1.35877972230852       1.07726023890257      -0.59945546766528
C        -1.51010160003582      -0.39219434145699       1.58466170067731
C        -1.36470410845194       0.09883233623521      -1.76543971187272
C         2.11898168803246      -2.05281426673261      -0.20324441373594
C         1.86384306698268       2.13184110736197       0.37027213088012
C        -2.31278997005215       0.33676758231344       2.66335530777709
C        -1.99848799069984      -0.72092505803374      -2.89044008924848
C         3.06284017291859      -2.91599097666986       0.63561463105875
C         2.74985365696477       3.12046503687345      -0.38971261128325
H        -0.90164145446164       1.42731943473471       0.58162371557870
H         0.20381794810688       0.89001733516927       1.86486497011992
H        -0.67834793893184      -1.64669274092702      -0.68306304237581
H         0.49116796674475      -1.00075092688228      -1.85444837848974
H         0.78116929703255      -1.59640682068834       1.42429544414718
H         2.15762968242125      -0.46697556420338       1.26456039203280
H         0.73300176142264       1.55350605054127      -1.36599880833737
H         2.20245341737124       0.57394163334479      -1.09417397002436
H        -2.18896772726682      -0.72483218785750       0.78373005199458
H        -1.05928502255788      -1.29673464055404       2.02233758383341
H        -2.14100402199066       0.38173837592182      -1.03728643703208
H        -0.96132532192312       1.03281598045334      -2.18707078570809
H         1.38853387530811      -2.70742900639501      -0.70674434272804
H         2.70361981240125      -1.52957247356571      -0.97526223963174
H         1.02317177747667       2.68456401402344       0.82103676068817
H         2.44337661545965       1.67126453542894       1.18400136846995
H        -3.09986167593064      -0.31470379185893       3.06755654094616
H        -1.66410531726192       0.64324608649140       3.49818807730366
H        -2.79536366567095       1.24077784441763       2.25933688663571
H        -2.79859038085259      -0.14943756077524      -3.38106198956485
H        -1.25248524082879      -0.98434022321641      -3.65580977777247
H        -2.43603742169455      -1.65596658110550      -2.50636358219194
H         3.57919244450532      -3.64087531329175      -0.00846542911312
H         3.82506451060514      -2.29317815627521       1.12241378913467
H         2.51406587926949      -3.47434801272361       1.41110838227521
H         3.12904478148383       3.88884806113215       0.29739265067712
H         3.61870949628648       2.61574912451622      -0.83290436600713
H         2.18731778480923       3.62138336052252      -1.19422776167508
N         4.36622341261664       0.15991956424446       0.25301965211340
S         5.05877321307240       0.56735521472499       1.64728484724864
S         5.19499294111696       0.09624103581686      -1.12151773258789
F         5.27045257980100       2.20054480390446       1.49004597070045
F         6.05418486251580      -1.30402131104318      -0.97972264985056
O         4.00768967926245       0.45096705894426       2.65155126758837
O         6.38579403910645       0.04607080676307       1.89120876662071
O         6.19074522732100       1.12731911388222      -1.32498545340524
O         4.21495074064855      -0.19919385416362      -2.16271977190224
