47
C13H26F3NO3S optimized with DFTB in AMS.
N        -0.93802273745136      -0.01721454820907      -0.76712978431807
C        -1.54383646971617       0.88615740559125       0.25873870721579
C        -1.80414347080516      -1.22998396215600      -0.95697780094894
C         0.39228666632201      -0.52502927078115      -0.25576339199656
C        -2.97470808901026       1.28471772629994      -0.08517645731264
C        -3.25052784400902      -0.88856745194288      -1.28874716413025
C        -3.85385562804082       0.04454068319057      -0.24033906533433
C        -0.75847330036752       0.69382874881653      -2.06323021747462
C         1.52346796186576       0.49633634013547      -0.26895116192350
C         2.77853944404451      -0.15838036156387       0.32290726019347
C         3.98179240945773       0.78201458807360       0.22005992392161
C         5.23432024590719       0.14064664834100       0.82509759995187
C         6.43941548001503       1.07570551313169       0.73434922231095
H        -0.90746815164744       1.76968459489926       0.34068622140240
H        -1.52809713144690       0.35004127609477       1.21199982686228
H        -1.75920803081249      -1.79927981132394      -0.02456930869881
H        -1.35167738636233      -1.81811608396968      -1.75967545828506
H         0.21588086048487      -0.88896669574137       0.76028231950840
H         0.66504417075508      -1.37300412727415      -0.88445765587648
H        -3.34999857057776       1.90976548643129       0.72930386065653
H        -2.99627195713769       1.88115512364248      -1.00099585231771
H        -3.32292167333955      -0.43518121056884      -2.28057142523782
H        -3.80888003120304      -1.82774267752603      -1.31530481513273
H        -3.92481996584519      -0.47563316615640       0.72055944376166
H        -4.86103633186299       0.34107126808394      -0.54221719400400
H        -0.26221513760861       1.64416946842031      -1.88291855522343
H        -0.14916642567104       0.07546496064512      -2.71802959401283
H        -1.72734289598286       0.87257798585298      -2.52059076297877
H         1.74170051558077       0.79437955803338      -1.29717337501562
H         1.25744836259577       1.38802154953775       0.30778810047898
H         2.59852459950079      -0.42174286661979       1.37126192513922
H         2.98969825354737      -1.07919586829205      -0.22833247100247
H         3.76231225790109       1.72165822139497       0.74056884138601
H         4.16493151586001       1.01711476883650      -0.83320948926352
H         5.45563839925919      -0.79111359463029       0.29481539576438
H         5.04581522062690      -0.10821758885990       1.87535769654886
H         6.65531727149568       1.32031344492842      -0.30647882233777
H         6.24634651221715       2.00330579868837       1.27581051041578
H         7.31735146531731       0.59660297283477       1.16833339417730
S         1.56949049690543      -1.84764985566997      -3.12754239191529
O         0.13842789641450      -2.14771002559183      -3.17499076626245
O         2.26278176326521      -2.46113094646380      -2.00980852161508
O         1.86250585820296      -0.43385898030022      -3.31347859990106
C         2.25527395187244      -2.67253183858130      -4.63271813504852
F         1.68244331133223      -2.18347599257507      -5.72681950426443
F         2.03085540167096      -3.98011922855222      -4.59235309730491
F         3.56341011218025      -2.47265611395453      -4.71867182735778
