52
C14H18F18NP optimized with ADF in AMS.
N        -0.24853510838006       1.00447040844329      -0.37457877822844
C         0.75942707345928       1.15515098116171      -1.52964741355899
C         0.04995104513948       2.17992976423477       0.55137169635729
C         1.79303832581653       2.20025723894521      -1.08546371855780
C         1.54373639109502       2.40827941171201       0.41491398930206
C         0.01327013223393      -0.28649219804499       0.37980115048444
C        -1.67107114339627       1.06661529578900      -0.90336926818737
C        -0.33364618852352      -1.55017088606273      -0.38171538753100
C        -2.73290456277602       0.95749660992402       0.16971776009718
H         0.20605756374529       1.47091274306741      -2.41965331029049
H         1.19641802979176       0.16651902136118      -1.71154922069650
H        -0.29680557231179       1.93831374938589       1.56364347956483
H        -0.50806089384692       3.03727556285531       0.15926887824003
H         1.61999319615094       3.13776519469532      -1.63308487526727
H         2.81844041893457       1.86676477987114      -1.29635267916331
H         2.11643674709141       1.69437345329264       1.02896795574433
H         1.81023509068122       3.42278363234796       0.74484098016208
H         1.08060173254547      -0.26477764781883       0.64435578447843
H        -0.56651949467724      -0.22441913448384       1.31151304610739
H        -1.74554283242204       2.02555009911244      -1.42948500369647
H        -1.75832977523696       0.26632264053463      -1.65210843220135
H        -0.00070333542291      -2.41051897472931       0.21834872525899
H        -1.41513852108716      -1.65651412391540      -0.54122982350049
H         0.17195916555671      -1.61383607389670      -1.35581888646911
H        -3.71120391369360       1.07124325127636      -0.32170108256937
H        -2.73043403192315      -0.01358746759707       0.68544236207161
H        -2.65382486906765       1.76545881020830       0.91051486060108
P        -1.01894822967587       5.95169211355390      -3.87684910615483
F        -0.67009491354878       6.81542505301243      -5.24012807301689
F         0.56010248798247       5.44146045007230      -3.66322780628516
F        -2.62019569143193       6.38322322440208      -3.98580683403603
C        -0.53503751569031       7.59418037807667      -2.91414500248392
C        -1.28276215453550       4.35989441012332      -5.13783923070306
C        -1.60456592526249       4.82259949446547      -2.27226954098954
C        -1.48661849127580       8.82596965137946      -2.98752872025503
C        -0.80735823897637       2.88564935702499      -4.87983807497557
C        -2.03434066036486       5.26659063366195      -0.83552323303409
F         0.67466542241949       8.04206299148263      -3.39269270326935
F        -0.34093702548337       7.35919304408055      -1.56257831947178
F        -0.57625848537309       4.65331108186382      -6.28726907368778
F        -2.60625867135353       4.23832776983050      -5.50044062374384
F        -0.61240043901991       3.86082285274590      -2.00712125696843
F        -2.71135402476878       4.12189093715463      -2.71251840218459
F        -0.88296354216577       9.89144081246361      -2.38046261331600
F        -2.65188943539955       8.59868287752090      -2.33403335541116
F        -1.76670777458467       9.17910207297223      -4.25871360729266
F        -0.89069297370950       2.17903230875599      -6.03966751169276
F         0.48533556157089       2.82577534385590      -4.46072520538769
F        -1.56085925302535       2.19469576720429      -3.97352060875553
F        -0.97667125246392       5.49945235457773      -0.01682043669507
F        -2.72228573645981       4.22147206135876      -0.23804691630477
F        -2.85141739288001       6.32464999029027      -0.84211439333624
