31
C9H19NO2 optimized with DFTB in AMS. Optimization did not converge!
N         0.24372087656439       0.19369969989696       0.29660241651943
C         0.01850896463509      -1.24448756738511      -0.05973739685755
C        -0.78595245683158       0.42993468696522       1.36301986537362
C        -1.49360809562892      -1.44984642145699       0.01650885148127
C        -2.03286065397849      -0.28632446857447       0.86734885089086
C         1.61169123764312       0.44043351396712       0.85574493879395
C        -0.01902459047792       1.07394019484680      -0.86865290305633
C         2.72788544961896       0.25569221860355      -0.15940034988319
H         0.51525197393478      -1.84293150344606       0.70767565536526
H         0.43329452389934      -1.45646298792931      -1.04538826128130
H        -0.89916976201267       1.50244102459196       1.52394884672019
H        -0.42329382176527      -0.06772235192649       2.26634381167575
H        -1.69646260640443      -2.40586868806324       0.50017188804859
H        -1.94678658447755      -1.44817740139997      -0.97797309321364
H        -2.66685719917246       0.35007212169816       0.24495610302996
H        -2.60610119814587      -0.65764161953127       1.71671216836395
H         1.61385959001314       1.45933834383600       1.25179027461438
H         1.73149572772547      -0.28312116186071       1.67637403957070
H         0.64347245664455       0.79659287571295      -1.68582683486207
H        -1.05169488156695       0.95567373209985      -1.18740075875642
H         0.16206628223953       2.10816402376273      -0.57943250403614
H         3.67153726881398       0.24026243130991       0.38578041443784
H         2.62738052905257      -0.68992646075209      -0.68934786445912
H         2.76667569529558       1.07075045793630      -0.88236342284421
C         0.61649399253443      -3.49954881286762       4.19332404020321
C         0.46784429545160      -2.45647122773866       3.06083971565475
O         1.52111828551088      -1.89876003861956       2.67748733345188
O        -0.68334717755389      -2.24540761440107       2.62501629587400
H         1.27504882544227      -3.10672871388872       4.96603834964963
H        -0.35683119783791      -3.74207396404260       4.61548453728100
H         1.06457250943406      -4.40197828144329       3.77843715774966
