30
C8H15BF4N2 optimized with DFTB in AMS.
N        -0.12854699042567      -0.71756248975512      -1.12190194695253
N         1.74524406702180       0.34004513864516      -1.15794464692419
C        -1.19856975076145      -1.58167155086388      -0.63370797424331
C        -2.29552889572722      -0.77798233208649       0.06662219828664
C         0.89267306936872      -0.31211405856691      -0.37439509788846
C         0.07952331790025      -0.32411865245046      -2.41750246152010
C         3.08261893146739       0.74049026698414      -0.72903625964742
C         1.26639622569293       0.33749703577546      -2.44302752509693
C        -1.80258606341696      -0.11737410870655       1.35315889485721
C         4.07888005826917      -0.34468281298873      -1.12337785260416
H        -0.74017208387137      -2.29357255290979       0.05959871353168
H        -1.60737948770633      -2.12003394720725      -1.49204796026789
H        -2.69209499879551      -0.02110085401715      -0.61803851000383
H        -3.10371233605813      -1.47595080741530       0.30386062601023
H         1.01056414181685      -0.47303551838307       0.68284654576703
H        -0.61802549453011      -0.55108416156091      -3.20476296676761
H         3.32462842964595       1.70094614954200      -1.19249941713920
H         3.05551739064578       0.84651377863484       0.35817240374261
H         1.80043028861911       0.80073364447018      -3.25403219917355
H        -1.11473647406051       0.69860503347392       1.12821333774241
H        -1.28702804221016      -0.84650984262186       1.97905838720321
H        -2.64874495849415       0.28935835156962       1.90661290507889
H         3.78137786537678      -1.29106076514018      -0.67302165921368
H         5.06764065974511      -0.06964085264278      -0.75908810714536
H         4.11486666780673      -0.45900289771845      -2.20662396513767
B         1.98618221738930      -2.42120480430055       1.26361744083337
F         0.65402392083467      -2.21342896076024       1.71546065264388
F         2.72017633700756      -1.24196692365726       1.54255437861208
F         1.91546097865667      -2.52247813071265      -0.15489224568019
F         2.54764204879289      -3.52497946482977       1.82505191479684
