52
C14H18F18NP optimized with ForceField in AMS.
N         0.00539829301026      -0.01761782127819      -0.01815723109326
C         0.93718125419574      -0.84765551804050      -0.84200228654602
C         0.89428662616704       0.85237382888717       0.81163630078821
C         2.33697999235344      -0.28436349715859      -0.68729803682225
C         2.31575369497539       0.34066566832440       0.67814360225602
C        -0.81306671573035      -0.89415708762466       0.88098753850850
C        -0.84569911468722       0.82221912339834      -0.92186583821795
C        -1.79119984470832      -1.82862381673266       0.14592444694039
C        -1.87066134651801       1.70798058413565      -0.19145845897432
H         0.66091189387357      -0.88152587517423      -1.92078532655588
H         0.97670751673881      -1.90608850238971      -0.49503197927544
H         0.60311412846936       0.88258808815391       1.88664205643439
H         0.89794785190196       1.90936934221789       0.45778255959578
H         2.51707700735129       0.49754325730955      -1.45839061408510
H         3.11589102342517      -1.07419138007841      -0.76446313832886
H         2.51271719768117      -0.43454605313393       1.45196713252983
H         3.06430186453198       1.15808986232346       0.76660914980719
H        -0.14159588676492      -1.52638888066290       1.50667574560563
H        -1.39934001021876      -0.28277753897772       1.60220821587837
H        -0.19985370796871       1.48667201058203      -1.54151447231263
H        -1.39833029116836       0.18584650631809      -1.64792758531244
H        -2.22766799289545      -2.54367462982779       0.87455745909120
H        -2.62946587413820      -1.25749913716470      -0.30186762410861
H        -1.28399604477014      -2.41366464897925      -0.64751015578144
H        -2.33781334230623       2.40084592625680      -0.92158890912473
H        -2.68373282496655       1.09811763666080       0.25112188323100
H        -1.39463711220071       2.31391647319966       0.60556613413380
P        -1.47896601737536       6.78907753343051      -3.95426227868215
F        -2.36082652070299       7.35279736024490      -5.32190349670154
F         0.08795014521978       7.50346799453534      -3.87787869831072
F        -3.06872764963555       6.20121823948269      -3.65793833058569
C        -1.87985570714548       8.60710300521922      -3.41090053734602
C        -0.84198505079131       5.78010275421412      -5.47896524730150
C        -1.17313949670782       5.57201321465891      -2.48413492234340
C        -3.37558384901661       9.01054727334426      -3.30864366349792
C         0.34378055866437       4.82160009659467      -5.24192984535435
C        -1.62293217955054       6.03476739714590      -1.08642732576509
F        -1.30015832086608       9.48616204342056      -4.31766259395299
F        -1.30085235127022       8.86446158561136      -2.18448408040365
F        -0.42291115845390       6.65633840581884      -6.47662642073133
F        -1.88690286588514       5.01628883739751      -5.98073007497124
F         0.18522647250255       5.33384330533798      -2.37862274157296
F        -1.78667165869304       4.35501475206007      -2.74651593094921
F        -3.45365081238577      10.29162230076602      -2.79167257559463
F        -4.08633031316897       8.17866226523375      -2.47060466567904
F        -3.98574755889106       9.02418165913280      -4.54983717499938
F         0.76360408008332       4.32564407160185      -6.46381051063398
F         1.41578987893792       5.47444504744619      -4.66289237793373
F        -0.02384095287295       3.74053240701438      -4.46550201062770
F        -0.80066399809203       7.03935041991650      -0.61409010654772
F        -1.51845317125705       4.97096159562014      -0.20836208664944
F        -2.93302942417930       6.45810568830699      -1.07850073222602
