37
C13H18F3NO2 optimized with ADF in AMS.
N         1.87166715221155      -0.52339724569877      -0.95108187308708
C        -1.92674667425406      -0.35628216532479      -0.44310477493234
C        -0.44147403711615      -0.14181034532410      -0.15659532776333
C        -2.82482094044944       0.20355580145448       0.65946510375764
C         0.44420811959736      -0.72033152360223      -1.25613701918495
C        -4.31479192533003      -0.00410199877642       0.39108343637053
C        -5.19379167009921       0.56360185386046       1.50308379830190
C         2.60699362492835      -1.52803313970916      -0.40379858991932
C         2.44413589496999       0.65978446644903      -1.30143798631799
C         3.91658451123840      -1.32828517275821      -0.05064642170929
C         3.75225323298925       0.93263729665098      -0.86076731426569
C         4.48890772436721      -0.05458501839131      -0.25263819835076
H        -2.12777709581619      -1.43708232398503      -0.56319543907097
H        -2.18707829269706       0.11990464985298      -1.40591310119450
H        -0.23232933466155       0.93792873459998      -0.05675707591359
H        -0.17057522037110      -0.61028533578099       0.80700634026773
H        -2.56028601078014      -0.27052620645776       1.62360837715687
H        -2.62455609410600       1.28459774856025       0.78009898119259
H         0.25774288897655      -0.24230482759951      -2.23014906980654
H         0.27525917733937      -1.80124701831481      -1.37409052745882
H        -4.58033373923607       0.46937275732777      -0.57153550277366
H        -4.51725418939498      -1.08424501651433       0.27201323779580
H        -5.02868484938213       1.64669421559876       1.62004371092422
H        -6.26266055062512       0.40603669760242       1.29289685623538
H        -4.96557953994761       0.08533164862592       2.46930239739697
H         2.08631571615371      -2.47236259449547      -0.25621078787507
H         1.79088080442718       1.44536496795420      -1.68506302188214
H         4.48553242759147      -2.14557959010465       0.38914518762270
H         4.16336095590188       1.92018048996605      -1.06607652380038
H         5.51317975174719       0.13964468554303       0.06953574115495
C         2.33517235930208       1.27559087897269      -4.03689503301952
O         2.79971510371546       0.26709469587913      -3.40724073726619
O         1.74490427269719       2.27941315182603      -3.60606498667123
C         2.52597304730439       1.15617784181148      -5.58553610606976
F         2.27472701725907       2.32176421303339      -6.23255872273170
F         1.66176706579504       0.21401265794940      -6.08692413489311
F         3.78933335235415       0.76523671491912      -5.92289420601936
