53
C15H30F3NO3S optimized with DFTB in AMS.
N        -0.40748614380024       1.76385631207851      -0.08783850266113
C         0.24254030243221       2.64509495118889       0.94708827981929
C        -1.27816255870792       2.68643376077689      -0.90930208280223
C         0.62682406885578       1.13615074086313      -0.97748076630798
C        -1.24202055149400       0.73842089035064       0.61978771968796
C        -0.76012054493092       3.75149908652044       1.22475970316583
C        -1.42953700029020       3.99135602354321      -0.12718992354745
C         1.63052570673828       0.25643273802926      -0.23803671683250
C        -1.87956816402149      -0.31067914632772      -0.29030862361694
C         2.83476076915624       0.00299365568099      -1.15371892085109
C        -2.88303649622272      -1.14452979103353       0.51554652074679
C         3.87194790074479      -0.88982594748782      -0.46766603451116
C        -3.51993010184483      -2.23109288660019      -0.35668426472605
C         5.08288026844706      -1.11996780597652      -1.36996993548131
C        -4.52050878962071      -3.06551083175296       0.44040861280789
H         1.15591826858101       3.05270184635475       0.51424121238111
H         0.48808000387119       2.05467711371962       1.82941426248793
H        -2.23510893412984       2.19861245276253      -1.09451712777280
H        -0.77777725428613       2.86401938232858      -1.86173716966739
H         1.15342609333679       1.95953332018799      -1.46099591396611
H         0.09950545483287       0.56671084203195      -1.74540465683193
H        -2.01749403592095       1.28661203019136       1.16143407075399
H        -0.59844436758986       0.24109646369491       1.34960964069089
H        -0.24011316152558       4.64506683613902       1.57194039012241
H        -1.48804958262547       3.44432050463648       1.98096539348185
H        -2.48041387623264       4.26256566483617      -0.01485329846401
H        -0.91230751149962       4.79315901447230      -0.65799097875349
H         1.17369989936382      -0.69455494089188       0.05443326138222
H         1.97912369436601       0.75911107276625       0.66729504832735
H        -1.11138765204012      -0.97331473953352      -0.69711071679041
H        -2.39603277497226       0.16259230249147      -1.12935900190667
H         3.28896708027168       0.96553878519079      -1.40883539516684
H         2.49566931717646      -0.46927241525886      -2.08186461392168
H        -3.66453712761902      -0.48892298556206       0.91430186994770
H        -2.37032249764184      -1.60903601919230       1.36457331006637
H         3.41626465070933      -1.85343038862079      -0.21280621294610
H         4.19765212851626      -0.41661587740614       0.46469346669329
H        -2.73527037697288      -2.88307290179624      -0.75458504468359
H        -4.02876169680470      -1.76272469106260      -1.20571435229973
H         5.81156467852722      -1.75305763893004      -0.86329842043546
H         4.78149147476512      -1.60931665753526      -2.29722877206003
H         5.55850312520409      -0.17042153695784      -1.61725543260708
H        -4.95970910602837      -3.83044931574837      -0.19970478039532
H        -4.02640202879137      -3.55600571785777       1.28002896365204
H        -5.32124637145333      -2.43472895112202       0.82851776800600
S         1.97038069879549       4.43686625201729      -1.41046914849070
O         1.39265396789398       5.26974128557947      -0.36897254936267
O         1.00971705856394       3.99548840894186      -2.41585407805799
O         2.81913715972024       3.36177945511125      -0.90962262005326
C         3.12437425995137       5.54798175417243      -2.32997926935021
F         4.05812590181803       6.02715021416421      -1.51847448164212
F         2.46405968261961       6.56953617285763      -2.86061219608015
F         3.72258437380816       4.88068218687411      -3.31004398927731
