35
C11H20N2O2 optimized with ADF in AMS.
N        -0.08787256802841      -0.88319853104218       0.59255740743382
N        -2.14670213038156      -0.26732377039821       0.36295639371930
C         1.24596956551122      -1.03640056642763       1.18792589107348
C         2.35282136436451      -0.57924771815680       0.24563832771012
C         2.30736991386371       0.91525465072931      -0.06336420112725
C        -1.08363535501169      -0.20188572127950       1.18249199954248
C        -0.50832966270370      -1.35533143172789      -0.63839687295978
C        -1.80473544598477      -0.95961906449105      -0.78584231253545
C        -3.39094896534129       0.47778457104596       0.58125696136734
C         3.36626265663352       1.31845022404800      -1.08487165214206
C        -3.40907830201285       1.77097434062700      -0.22082578857821
H         1.23170668882622      -0.41871215394179       2.09991741881063
H         1.37097840301210      -2.09360185779372       1.47317778004642
H         2.31480797847668      -1.16415688894369      -0.69248317768732
H         3.31481991048032      -0.84049924631273       0.72276601643560
H         1.30166085228218       1.20170695586690      -0.41363725137559
H         2.45201312344517       1.47752204391898       0.87590871242751
H        -0.91881002707308       0.43184564909717       2.11164653051204
H         0.13619585969859      -1.92693301802759      -1.29345452112837
H        -4.22826651883870      -0.19255221656368       0.32922006503015
H        -3.43616870825490       0.68654401636011       1.65976857627973
H        -2.50395941223631      -1.11239236006027      -1.59842665453811
H         3.21661961305956       0.78723050952197      -2.03977104206509
H         4.38143530169540       1.07939212622253      -0.72684945030413
H         3.32669734431052       2.39828593774273      -1.29195397739314
H        -2.51770991827187       2.36361933961651       0.03890393191798
H        -4.31957626934667       2.33914747328528       0.02161252367245
H        -3.40758780877495       1.56633019958438      -1.30231629839933
C         0.55386740085755       3.83179325418460       2.50311730135706
C        -0.09879141136216       2.51354032882862       2.08741686205056
O        -0.17220984998754       1.61192816745618       2.99460933399121
O        -0.49456785868489       2.39685739340106       0.89155940483540
H         0.12684582573885       4.18256417115452       3.45410776599901
H         1.62845824832194       3.66309044794979       2.67631869354500
H         0.43020856081728       4.59494120412511       1.72389401227656
