31
C11H18ClN optimized with DFTB in AMS.
N         2.44631998333360      -0.01186815264183      -0.65255640003105
C        -1.36522299427984      -0.00244396875793      -0.75025188150099
C         0.03962037168976      -0.02001215142676      -0.14233430849999
C        -2.44197633007001      -0.02671170753463       0.33917578504424
C         1.11357867319820       0.00508578600608      -1.23863762523148
C        -3.84832215722559      -0.00872272009785      -0.26820129817890
C        -4.92423079577832      -0.03264515634434       0.81632231549668
C         2.98952152229164      -1.20832755391893      -0.23056005936565
C         2.99987747616538       1.16213646328007      -0.18344949468453
C         4.13466095990317      -1.26180409872500       0.46276327203666
C         4.14536307300324       1.17848753450381       0.51120864222369
C         4.94270816376529      -0.05043865961427       0.72724811643480
H        -1.48903848429973      -0.87130464733364      -1.40598643269918
H        -1.48552386053507       0.89764656138847      -1.36311721235227
H         0.17342944209431       0.84847255318393       0.51017241303159
H         0.16995649900645      -0.91995687207729       0.46676253133466
H        -2.31962033679309      -0.92683965467852       0.95134719313521
H        -2.31568976204292       0.84183069924606       0.99464705066448
H         1.01346745233696       0.90898255524508      -1.84719834491005
H         1.01022411545949      -0.86678800940282      -1.89178015140733
H        -3.96875761398892       0.89146228931344      -0.88049194757363
H        -3.97279664439115      -0.87751609578205      -0.92351787577866
H        -4.82944965345632       0.83702661786303       1.46807881951228
H        -5.91476136522944      -0.01923902554970       0.36109549947738
H        -4.83357899500239      -0.93346552808139       1.42492934458641
H         2.41776930927704      -2.09598391194531      -0.47775656016538
H         2.43529998702792       2.06347932018163      -0.39531773703003
H         4.53156590005495      -2.21735276565256       0.78091492199487
H         4.55112101673928       2.11669174094332       0.86723327937692
H         5.43190759171936      -0.07130008746205       1.70299285529939
Cl        6.39307559432670      -0.03298087152804      -0.45047594114014
