32
C10H18N2O2 optimized with ADF in AMS.
N        -0.04407695205575      -0.85432071168988       0.48781144781638
N         1.93790514401534       0.03023928534741       0.47696620345762
C        -1.43763558986342      -1.17160405096154       0.83538135020226
C        -2.36545305389938      -0.89170775041189      -0.34210046466070
C         0.72874331045760       0.07149075057781       1.06566620949194
C         0.66121263775172      -1.51182414676498      -0.50163236640329
C         3.04655435826340       0.94658141410420       0.74688466900644
C         1.90626683958444      -0.94185315007556      -0.50810193251909
C        -2.32508182319564       0.54864733330347      -0.83854936070961
C         3.04447692635955       2.12539437643651      -0.21478555906303
H        -1.69220808980884      -0.56895995644488       1.72160863070971
H        -1.42993270069116      -2.26432027641467       1.04855485162713
H        -2.10252234897329      -1.59809689332433      -1.14842618925328
H        -3.38399836661276      -1.15998825849049      -0.01394112696318
H         0.44001545126470       0.73455483194123       1.87126282687887
H         0.16094848014021      -2.36945220820600      -1.06374442215995
H         2.95589678481180       1.27810016086924       1.79185452244954
H         3.97636599828837       0.36347659242022       0.66861404551665
H         2.77720282588694      -1.15922052085571      -1.11549348767098
H        -1.31400822746594       0.82132637589397      -1.18243077733597
H        -2.62274794526476       1.26001680691317      -0.04972075285892
H        -3.00637632857534       0.68723284775755      -1.69137772249287
H         3.11991880600738       1.77844730728039      -1.25532751709809
H         3.90003639225475       2.78358808876764      -0.00455644462051
H         2.11792107445847       2.70862995624317      -0.10985921726452
C        -1.46123920908790      -5.78916495927383      -0.99476020855389
C        -1.02330998915367      -4.36031475440319      -0.66092260444205
O        -0.75960115487720      -3.60968363608084      -1.66257811234114
O        -0.93893994561129      -4.04505078450889       0.56128804060665
H        -2.16616501180062      -5.78442823787109      -1.83881788745618
H        -0.57927465237708      -6.36824921813584      -1.31142273158862
H        -1.90972836183062      -6.27728891864234      -0.11891760450732
