47
C15H29ClN2 optimized with ForceField in AMS.
N         3.08493032813897       0.87653970952020       0.02726256452472
N         2.87947279680714      -1.33063246642828       0.22762135156620
C         1.51363185829331       2.75971976827234      -0.26845941600740
C         2.86800427702088       2.29815606482680       0.29221070252715
C         0.93223118053272      -2.61379855483839       1.05516637920749
C         2.43740225811205      -2.62614445979738       0.74424444626687
C         0.33567203771291       2.10284430497537       0.46719341160377
C         0.08759605801899      -2.29735495938774      -0.18920420592963
C        -1.01128475524026       2.56554409102809      -0.09779525190385
C        -1.40763971317966      -2.26334995934550       0.14722127777311
C         2.80418432822010      -0.14366172203366       0.86181291693113
C         3.36090093716102       0.31557546007747      -1.16745644831736
C         3.24065304397458      -1.05309782196907      -1.04159374539167
C        -2.17047705142491       1.90515391089962       0.65981714530904
C        -2.22821497949661      -1.76803184010942      -1.05098630431592
C        -3.51473591434481       2.23011730794816       0.01655347676168
C        -3.71211532696376      -1.67577358325400      -0.70698253645722
H         1.44276139895706       3.86355506381030      -0.15731954374107
H         1.46196045523036       2.52139543543075      -1.35332289678556
H         0.72816855634917      -1.86144824587844       1.84771599750334
H         0.64272335460064      -3.61106428903873       1.45228607793685
H         3.68304040208560       2.88717369432689      -0.18080353056521
H         2.90811927682914       2.49250385492877       1.38667058681096
H         3.00225359656912      -2.86033493859649       1.67188856643789
H         2.65434845629222      -3.42755454993605       0.00459379866260
H         0.39017347078770       2.35424188285242       1.54898161192150
H         0.39767185069921       0.99981816422358       0.35816141639067
H         0.27361899229621      -3.06632352492088      -0.97030064072942
H         0.38491724104480      -1.30707322665265      -0.59577786090425
H        -1.09554556913390       3.67079569931442      -0.00678156561166
H        -1.06759938719249       2.29236774115742      -1.17450888483517
H        -1.57642707248263      -1.58477222629954       1.01139535594255
H        -1.74383567355799      -3.28454920932781       0.43215494113901
H         2.45863474533658      -0.01819226103700       1.88036519740366
H         3.56494020640688       0.86327562218785      -2.07816507235203
H         3.32958044032388      -1.78215019302365      -1.83623597595391
H        -2.03796782025266       0.80337886628523       0.66441576806341
H        -2.17749716537231       2.25832218125325       1.71363169173770
H        -2.09814393769958      -2.46372209606235      -1.90802807360902
H        -1.87248766650566      -0.76084617033120      -1.36058070125561
H        -3.69180415483786       3.32627262915232       0.02506674068858
H        -3.54054723578122       1.85894456253136      -1.03004528553877
H        -4.32752831939600       1.73275145744395       0.58709596039345
H        -4.27262008153379      -1.28719714070834      -1.58338764959959
H        -3.86993697809652      -0.98415609898421       0.14749103551938
H        -4.11006353553181      -2.67890122223798      -0.44524877573009
Cl        5.94089114172321      -3.80100488894776       0.51626901701167
