31
C7H16F6NP optimized with ADF in AMS.
N         1.05198724348776      -0.65656399282736      -0.05126550909559
C         0.98558523135330       0.86824775675524      -0.10994189256636
C        -0.21740173387788      -1.24328510998608      -0.63333356307281
C        -0.26875065140801       1.42014701473698       0.54084936478140
C        -1.48419352154351      -0.70267145668220       0.00979878839906
C        -1.53455699081186       0.82281365412483      -0.07014226027513
C         1.26541922456922      -1.11365708351411       1.36127084191073
C         2.21737497842765      -1.13416846964178      -0.87372973838266
H         1.02130394632818       1.12119171637820      -1.18051169855431
H         1.91237088907270       1.23225560752714       0.35163104412156
H        -0.13403475912663      -2.33633354377768      -0.53421101172504
H        -0.19304286153465      -0.98797183891261      -1.70507351447598
H        -0.23924164199847       2.51292920554084       0.40179136612470
H        -0.24771449397838       1.25284845318140       1.63156487490551
H        -1.55801667285197      -1.03693674699919       1.05888609916219
H        -2.33807084711226      -1.15578919624985      -0.52106870100462
H        -2.43310404168090       1.20274756943789       0.44055575265468
H        -1.60964561547811       1.12945589317534      -1.12983610936895
H         0.42328778877116      -0.79835210213378       1.98469794028929
H         1.34335855242513      -2.20906147482841       1.35831146369184
H         2.20101962748544      -0.66065204047810       1.71504209368791
H         2.13335411662414      -0.70456616250590      -1.87930698769358
H         3.14958950406737      -0.78822413202009      -0.41142358986656
H         2.17298673866863      -2.23132383822864      -0.91346830627714
P         4.91956086031285       1.48373401489120       0.06955960547359
F         3.79702393925523       0.74057783757587       1.13133179690480
F         4.38878124662315       2.94474558655670       0.60851328488727
F         6.04569900364469       1.40940242175631       1.25071446153031
F         5.96440720897914       2.17562708341831      -0.97376595278808
F         5.33262654902388      -0.03928266233997      -0.45406624611438
F         3.71610882378302       1.50809444806950      -1.10120211066365
