24
C6H15NO2 optimized with ForceField in AMS.
N         0.01272650874297      -0.00666138698199      -0.01200906381799
C        -0.89155362485914      -1.13942588703271       0.28607689019233
C         0.66992442299460       0.44173958256750       1.23558331495378
C        -0.76940294897977       1.11028600928405      -0.58669098604778
C         1.04207066138475      -0.43888318215048      -0.98311457156039
H        -0.32849816816853      -1.99632078831254       0.71943278814953
H        -1.67694894998388      -0.84148604489278       1.01661885039605
H        -1.40129409731050      -1.49672338548418      -0.63684301606971
H         1.36059226050559       1.29246051709434       1.03922888395580
H        -0.08243520413284       0.77689089710324       1.98451417010833
H         1.26342652502961      -0.38197795754422       1.69213385986687
H        -0.11304324122943       1.97863274452160      -0.81974528222646
H        -1.27433576166247       0.80034183125640      -1.52914788038136
H        -1.55372489688934       1.45538711116676       0.12393667969097
H         1.73182045266352       0.39853564203615      -1.23194400077455
H         1.65233287656155      -1.27446994500382      -0.57251924829473
H         0.57450561999670      -0.78968679223019      -1.93046109625401
C         5.04066435002004       1.09144722451292      -0.55051500637925
C         6.11867306117907       0.39718889692307       0.22026812202460
O         5.82602153367025      -0.34120362577233       1.14655227367379
O         7.29159782113283       0.56512252898351      -0.07338360377183
H         4.37592216414423       0.33765796938489      -1.02182114789923
H         4.44254638006211       1.72802859727100       0.13487695766619
H         5.47778855602806       1.73229239239982      -1.34608471320093
