30
C8H13F3N2O3S optimized with ADF in AMS.
N         1.03276824310759      -0.15387944620767      -0.05610775949540
N        -1.10957614666333      -0.06710041752537      -0.40297666919799
C        -0.00940992687933      -0.80793575501403      -0.58275607684342
C         2.38226721819000      -0.72203497925763       0.10149904886920
C        -2.48010473092878      -0.52405886184229      -0.68811901587150
C         0.58265227991182       1.02930134502991       0.49158296078640
C        -0.76319031809775       1.08375572776180       0.27334055817349
C         2.71150263305393      -0.91748973959877       1.57291493688819
C        -3.27846370071894      -0.65371995521488       0.59888767329242
H         0.02141839861705      -1.80511583420803      -1.00921545634558
H         2.36106742993301      -1.69469174449309      -0.40878478274419
H         3.08905011227117      -0.05133880465956      -0.41289962265461
H        -2.92722249326946       0.18488563105448      -1.40328068760581
H        -2.37588327095458      -1.50955070261618      -1.16273429936798
H         1.24737208139553       1.72273927438445       0.99014100519352
H        -1.49412719981430       1.83422451833498       0.54512405244695
H         2.80314547384238       0.04250535820702       2.10314915312381
H         3.66975143647281      -1.44956118610280       1.65382490704929
H         1.92422613638751      -1.52458180223789       2.04241698889428
H        -2.73566763167270      -1.30661054070129       1.29764163260678
H        -4.25151530551219      -1.10911694310647       0.36758999636357
H        -3.45834091681571       0.32467783360291       1.06961594474954
S        -0.39853336026684      -3.33782821673527       1.10630506571317
O         0.93491777967803      -3.54655830372618       0.50109948021277
O        -1.52612693496211      -3.46393305606707       0.15916626745387
O        -0.48450972667766      -2.16816357972371       2.00871984991960
C        -0.60296283535725      -4.79834128240787       2.26346870077604
F         0.34969519104264      -4.77901565872063       3.23416910695235
F        -0.49657262348476      -5.97358110774166       1.59359483075450
F        -1.81982914442777      -4.76435019366721       2.86927179360674
