56
C14H28F6N2O4S2 optimized with ADF in AMS.
N         0.59638114460137       0.36136995239778       0.30435134674494
C         0.22465384728749       1.04917729453614       1.61418598073686
C        -0.56946909441491       0.37841587991133      -0.67171040740141
C         0.96608875335301      -1.07823402109228       0.60477539162720
C         1.76884357457574       1.10697798810921      -0.32246927480384
C        -1.04411151493239       0.55515472877464       2.28858576638371
C        -1.17880585957552       1.74117941609648      -0.95486988524639
C         1.58994935181759      -1.86940471172085      -0.53356398276169
C         3.03041351559181       1.18384971821797       0.52147471014141
C        -1.14393184731858       1.17955047841627       3.68402406177863
C        -2.30661518201996       1.60003532251433      -1.97570838726714
C         1.80034318542455      -3.31800792742287      -0.09042827018326
C         4.13997739908802       1.83079411159307      -0.30950853370416
H         0.17805440464420       2.12290145670372       1.39595973146769
H         1.08696482085958       0.90420643287150       2.27723969193029
H        -1.32685047974926      -0.30152383477519      -0.25170607830584
H        -0.19138942042669      -0.06768677487212      -1.60317281967670
H         0.03973377932741      -1.56552140943506       0.93864006244438
H         1.65185155784559      -1.04432578837770       1.46359461490166
H         1.41144769148185       2.12554561302007      -0.51086636548031
H         1.96112705423541       0.61090218928376      -1.28584158170964
H        -1.93169824555803       0.83696478864936       1.69901997635148
H        -1.04792061231991      -0.54327241729754       2.38867568505376
H        -1.57435464162090       2.18759267437478      -0.03178164747532
H        -0.42485079676054       2.44434839256491      -1.33509041552199
H         0.94357823831027      -1.85276624202425      -1.42547443540771
H         2.55931666056248      -1.43188639482048      -0.81919440224338
H         2.84399794920742       1.80211941506001       1.41340999006628
H         3.35916808288187       0.18547036319050       0.85729556404483
H        -2.08412592554153       0.88316065207258       4.17079432935787
H        -0.30683118962572       0.85429448522938       4.32011923202748
H        -1.10503392634122       2.27569676403905       3.63096902922022
H        -2.75700332984892       2.58368540590884      -2.17200150349357
H        -1.93552685893739       1.20218553478155      -2.93378121345557
H        -3.10273719853802       0.93089427471213      -1.61225140296519
H         2.27777115975460      -3.90260901292040      -0.88971613305673
H         2.44763093808925      -3.37136594372549       0.79853966946465
H         0.84255450744166      -3.80160032729336       0.15708018108854
H         5.04529822822352       1.96445299160133       0.29973721078450
H         4.40103638237541       1.21430363116587      -1.18471943790103
H         3.82866300267776       2.82429660078690      -0.66376338282308
N         1.02321657698339       5.72044374614464       2.16277159299868
S         1.79078579231015       4.70202164206155       3.14382284745467
S         0.38443450758606       5.31972071703453       0.75487760377983
C         3.57823999390128       4.80419450231981       2.53162101703971
C        -1.44748040417031       5.12585293667028       1.16299138572816
O         1.83038067060726       5.28494778240633       4.47347262476231
O         1.46897204771256       3.27997300509318       2.99007111872280
O         0.73782125193809       3.99307645550795       0.22585906267598
O         0.40822535174374       6.46075526522584      -0.14386855689833
F         4.15466302516563       5.97244930449652       2.87598240423548
F         3.64656020200789       4.67256943203264       1.18154140176455
F         4.29440407546523       3.78687030234649       3.08528014096415
F        -2.13714999361568       4.87042773908747       0.01609994419187
F        -1.96047431120737       6.23132710727562       1.73357426299568
F        -1.65463045595628       4.07083415959130       2.00502305185205
