40
C12H25NO2 optimized with ForceField in AMS.
N        -0.88045022088796      -0.16500501376760       0.04475673051510
C        -2.01536393211429      -0.28233063216501      -0.92136029250208
C        -1.21381175653096       1.02184058986213       0.89159236453264
C         0.39315983086641       0.07823832740635      -0.70892838456953
C        -2.84652761454780       0.98231912162952      -0.83575219729411
C        -2.63381046691380       1.45282121505804       0.57547009660756
C        -0.80755768823150      -1.39039626346442       0.90499460710784
C         1.65654782687170       0.18314909129844       0.18088415046684
C        -0.44858742156569      -2.68161260917640       0.14660486333329
C         2.87003476567167       0.62926876958399      -0.64437700558485
C         4.12513021082037       0.72042815942179       0.21983468985735
H        -2.69500938228151      -1.12966940492562      -0.67177680336621
H        -1.68433545913603      -0.44768136039667      -1.97201532937242
H        -1.11440210479238       0.82489595340834       1.98355500578044
H        -0.55753309899330       1.89517137495796       0.67210761480032
H         0.56352920950652      -0.72753911441875      -1.45714619233593
H         0.29806969405223       1.01730209815053      -1.30251624149505
H        -2.45740722945193       1.73997726273348      -1.55133167913785
H        -3.92147550386961       0.78744447749787      -1.04347818938696
H        -3.34640191116923       0.93878866506283       1.25781687763046
H        -2.76272698194753       2.55415208626158       0.66114897270891
H        -0.06955182471593      -1.25466105988451       1.72581787023376
H        -1.78544853286787      -1.55421368846156       1.41375709499910
H         1.49686929526005       0.90778151663152       1.00646017703459
H         1.88779293026668      -0.80604397012327       0.62817063599657
H        -0.56819914187635      -3.54941267882773       0.82852088011260
H         0.60743283176312      -2.66802378648115      -0.19110054949113
H        -1.10895224153814      -2.84065593441025      -0.72998227508353
H         3.05097160793568      -0.09838060389026      -1.46540253877594
H         2.67236488522278       1.62645356927276      -1.09460372855115
H         4.34965586149057      -0.26446582817419       0.68167479187235
H         3.98805551071643       1.47841045730842       1.02012456140998
H         4.98875554705561       1.02126322061925      -0.40988442493581
C         8.23110429720617       0.19730885366223      -0.10034166278736
C         7.89440114873170      -1.10254455634012       0.55946293668486
O         8.45616991310602      -2.12718535380929       0.20852845206818
O         7.05996831205022      -1.14365012085104       1.44917211203392
H         9.30694368447641       0.42548196143230       0.05239344264916
H         8.02484196039176       0.12764969400527      -1.18896766468700
H         7.62445178316970       1.02415729050327       0.32712456042112
