49
C15H28F3NO2 optimized with DFTB in AMS.
N        -0.39666254082302      -0.43605831708166       0.22705446749155
C        -1.37731234244472      -1.25976109272297      -0.57478126605884
C        -1.16598765085990       0.53634155209008       1.07030356547308
C         0.42893046834184       0.32755555376421      -0.76972664276742
C         0.46704446455581      -1.30527482223670       1.11157577832788
C        -2.42010993005841      -1.96075246782137       0.28337298353427
C        -2.18799581499048      -0.14218914471288       1.97597679868966
C        -3.17893393863751      -0.96568527914818       1.15463190505228
C         1.45527657896687       1.28251412689246      -0.16291741825068
C         1.57290364597279      -2.06231480722973       0.38023419617044
C         2.36097058224155       1.82695062587635      -1.27512623274402
C         2.08762173378967      -3.21922780421775       1.24687805052273
C         3.39349028605171       2.80225558259428      -0.71480519391965
C         2.96727814051384      -4.14647725466325       0.41094379739217
H        -0.80480457125105      -1.98424320816039      -1.15845792670499
H        -1.87057436957949      -0.56631180758946      -1.26153124705906
H        -1.67297392674886       1.22201494683853       0.38493997132964
H        -0.44960779612227       1.10160482269753       1.66984500326648
H        -0.27011557899476       0.89280938433651      -1.39175433787986
H         0.92336513476722      -0.41221503474396      -1.40219148980578
H        -0.20076113721044      -2.02032876104536       1.59407334343753
H         0.88962456971013      -0.65880825049740       1.88537669361368
H        -1.96104173008197      -2.73662082014488       0.89922057073509
H        -3.10367782172245      -2.46415378260340      -0.40434476531383
H        -2.71267109846856       0.64689488193808       2.52172057802504
H        -1.68417909978575      -0.77694130121130       2.70946851330599
H        -3.77742552712775      -0.29721045090503       0.52702203151330
H        -3.85477986814711      -1.49998491082208       1.82570073535803
H         2.07021476293083       0.77246635588464       0.58173240372652
H         0.95097274094366       2.11832793921997       0.33046086481563
H         2.40224915153118      -1.39402499789305       0.13351516255342
H         1.18409532856862      -2.48409287880738      -0.54787583463091
H         1.74796329821750       2.33339767770919      -2.02773191805730
H         2.87358541400023       0.99285906971422      -1.76463327927591
H         1.23695178510492      -3.79089528004658       1.62799752962522
H         2.64423734254473      -2.82612997959210       2.10467503337866
H         4.02461144519358       2.30767170274952       0.02435887353106
H         2.90060017505703       3.65139534964343      -0.23985702158048
H         4.02651713195114       3.17322060905752      -1.52035773519926
H         3.32077667690880      -4.97569566872579       1.02314671932604
H         3.82925815760733      -3.60793994763920       0.01450523483691
H         2.38453387960097      -4.54744598257603      -0.41918452447112
C        -0.92225962757829      -4.37255966649646      -1.26119201435371
O         0.13465448056025      -3.84813386329348      -1.62008583462866
O        -2.08876172257887      -4.14285963982069      -1.54759339265328
C        -0.73210404787541      -5.46663856428590      -0.07883717313704
F        -0.80647985360002      -4.79366048245788       1.11340117544327
F         0.46193079039085      -6.08066414980698      -0.07807444013418
F        -1.67017469973600      -6.41711508390725      -0.03091755244962
