32
C10H16BF4N optimized with ForceField in AMS.
N         1.74563396603285      -0.02835322268239      -0.52587346421111
C        -0.62971680305061      -0.01284842561328       0.09346004560331
C        -2.07123570787872      -0.02709457057619      -0.42431672753487
C         0.37834356042586      -0.06029247791440      -1.05853081864653
C        -3.06973790649711       0.02813176983496       0.73778868749528
C        -4.50856750036457       0.02848525863232       0.23090714174802
C         2.37334471685558      -1.19793449107290      -0.19300313186657
C         2.36159900071052       1.17457170345142      -0.31266316668401
C         3.64799255093059      -1.18028019846260       0.37854252695754
C         3.63558420500002       1.22756037251386       0.25721444733141
C         4.27884404154457       0.04160314609270       0.60763676950020
H        -0.46625062025689      -0.89075361587603       0.75663271311826
H        -0.45964905052930       0.91294051238832       0.68599864292766
H        -2.24172526282289      -0.95556630443832      -1.01134160073817
H        -2.23187277852025       0.84941681350985      -1.09012675459336
H         0.22149229558568      -0.98169947253609      -1.65962162072358
H         0.21059544052968       0.80071099337672      -1.74362047015047
H        -2.90029700521823       0.95080282989374       1.33502133323291
H        -2.92299025682964      -0.85259764499255       1.40070264630903
H        -4.68937134138506       0.91366454665088      -0.41564436953531
H        -5.20555966745835       0.07158531649432       1.09450294872322
H        -4.71425707074971      -0.89794093627575      -0.34670138749662
H         1.88397023078525      -2.15142757906256      -0.35395974263245
H         1.86258658320527       2.10186753648741      -0.56830414580295
H         4.13875003342276      -2.10625783376231       0.64963297397219
H         4.11592586114165       2.18139805708390       0.43353467991332
H         5.26194871675910       0.06976450517278       1.05971910292593
B        -1.83901937644558      -3.89268919039291      -2.54915905212221
F        -2.78343107859388      -2.88364300449813      -2.87537342383068
F        -1.80903403330867      -4.86454949847394      -3.58379039068943
F        -2.21079761545800      -4.51231232068771      -1.32689692522336
F        -0.55151117286190      -3.31229203466512      -2.41170300917657
