48
C12H22F6N2O4S2 optimized with ForceField in AMS.
N        -0.85370492947158      -0.17816396962209       0.04942556714391
C        -1.99959115859233      -0.27225336354366      -0.90776176009942
C        -1.17599435570457       0.99189505988774       0.92209002460769
C         0.41272007402645       0.07558772233834      -0.71125163583732
C        -2.85829859688295       0.96838782186560      -0.74391205873945
C        -2.62323549078565       1.37249390568631       0.68366809640089
C        -0.77618141780776      -1.41787333992585       0.88862814739587
C         1.67859648765870       0.18416927086895       0.17202648800622
C        -0.41438212911466      -2.69550650914794       0.10923758537559
C         2.88305986338087       0.64900311485472      -0.65514438703967
C         4.13981546661866       0.74343264679244       0.20501608657135
H        -2.65493229284562      -1.14859080342568      -0.69651326450827
H        -1.67934028585844      -0.37252230422773      -1.97009187880893
H        -1.00815492184303       0.79398821303853       2.00537399989414
H        -0.56285691744819       1.88741933400399       0.66721941280835
H         0.58167558877649      -0.72545872260854      -1.46505973848546
H         0.30874525148874       1.01761021081646      -1.29883334833100
H        -2.49933190231699       1.77009601332364      -1.42704180468614
H        -3.93319323689689       0.76263697282910      -0.93972594697509
H        -3.28532461201193       0.78478174670622       1.35751362727085
H        -2.79894997078781       2.45822290214223       0.83825801194035
H        -0.03581068328872      -1.29514591875581       1.70948265961492
H        -1.75274855743525      -1.59185023177139       1.39656211293074
H         1.51573212740043       0.90167145542066       1.00321944389605
H         1.91944978018978      -0.80634288449732       0.61132540536804
H        -0.55860474261950      -3.57725123521097       0.76854331511638
H         0.64958316216350      -2.68482174662305      -0.20331118956196
H        -1.05447643221958      -2.82696879827265      -0.78626230092825
H         3.06760769750241      -0.06869181247909      -1.48419213168933
H         2.67420493807059       1.64875043702689      -1.09457202973265
H         4.38578529470543      -0.24892115806631       0.63929460700437
H         3.99053865745336       1.47666096998929       1.02611028079010
H         4.99362789085228       1.07905011911426      -0.42031904935859
N        -2.86948662889014       7.21589539848916      -0.66646603477466
S        -1.92597709006105       7.96655531942269      -1.77625294566242
S        -2.45166086233497       5.79312430730638       0.03273168985476
C        -2.28033194772605       7.31794529919022      -3.39856802368441
C        -1.75008735715326       6.10877977369123       1.63834685217788
O        -2.22787014073797       9.43860884627079      -1.76554322295498
O        -0.47223348545225       7.74901796000929      -1.45932281591286
O        -1.44746275914405       5.05728019402792      -0.81057223226464
O        -3.68321501842956       4.94947203480324       0.20058388292991
F        -1.57316909730965       8.03308986780763      -4.34590226604823
F        -3.63305130566977       7.43099559041989      -3.65695234219715
F        -1.91285149728842       5.98793852044462      -3.46544659015641
F        -1.33482752988862       4.91765749633717       2.20237197618790
F        -2.70072758705694       6.69413409439804       2.45246941629815
F        -0.66746158901352       6.95846333605448       1.51550286895288
