41
C11H21F6N2P optimized with ADF in AMS.
N        -0.74229253987733      -1.67191304433404      -1.72687774596415
N         1.42210254138168      -1.58147079605493      -1.69718809850486
C        -2.12310158660938      -1.85512338792422      -1.25377389825530
C         2.79798280183810      -1.59941755869890      -1.18328449880879
C        -2.73142433904640      -0.55395164459990      -0.73646241082035
C         3.29332190296556      -0.19377248209563      -0.85646896839146
C         0.33535726290394      -1.76694832749602      -0.93954718947047
C        -0.33450669399847      -1.40639426002802      -3.01941668798896
C         1.03015946904278      -1.34754888190401      -3.00169450290630
C        -2.02030304208880       0.00808908500719       0.49402342054951
C         2.50460621892912       0.48449450496341       0.26282599358689
C        -2.72005206174514       1.24080596493123       1.05866803674103
C         3.04637857870874       1.87372940579197       0.58938860270612
H        -2.69360848183225      -2.26667359307498      -2.09939770131979
H        -2.07403944114151      -2.62207854966976      -0.46576133676067
H         2.78133593932341      -2.24565374684806      -0.29258241626696
H         3.42038081446069      -2.08798971631927      -1.94766861141594
H        -3.78352904344902      -0.77654344091324      -0.48380844076651
H        -2.75200718639764       0.19817089096897      -1.54702145767284
H         3.26937852466816       0.42964314793982      -1.76904652483840
H         4.35451376727443      -0.28343425344123      -0.56404227545385
H         0.31851962528520      -1.99367948337999       0.12347794128409
H        -1.04012044934925      -1.31444704446777      -3.83564124495182
H         1.74822357264348      -1.19033650331106      -3.79660855950764
H        -1.95301844718820      -0.77888936473973       1.26416235500185
H        -0.98103594102245       0.27488689449887       0.23220325730602
H         1.44378030679826       0.57093775239682      -0.03000294682647
H         2.52790607102499      -0.15563527265805       1.16269616377692
H        -3.74923891123192       1.00093801928879       1.36765289250651
H        -2.77078769466747       2.04993251145606       0.31267360592833
H        -2.18616307050464       1.62439483067354       1.94073863817015
H         2.99629143215084       2.53386834517671      -0.29091349170074
H         4.09793377937509       1.82093351134971       0.91114487789129
H         2.46885672088084       2.34459804881487       1.39846300720969
P         0.07208652571783      -4.31124121108055       1.53705753054439
F        -1.38268209960253      -4.95023917340572       1.92797742151718
F        -0.59261579556946      -2.75256714429462       1.66867532621999
F         0.52221919958141      -4.24005528022485       3.10449796192123
F         1.52066044976863      -3.57105407214411       1.09108530799296
F         0.74987737907431      -5.78123482442537       1.34059163034062
F        -0.37716602887564      -4.29800908802393      -0.08048276870248
