40
C10H15F6N3O4S2 optimized with ForceField in AMS.
N        -0.69388791809425      -0.77946179860042       0.36219873066828
N         1.49489354346110      -0.40070297956682       0.27144776730887
C        -2.09142408166192      -0.72509819882983       0.78663374666548
C        -2.96274740594711      -0.02714049361822      -0.26543670164152
C         0.34840886980059      -0.14157287594934       0.92957466035380
C        -0.18875871299397      -1.47200958754096      -0.67869216970567
C         2.82035734269194       0.12978508534711       0.57778342598789
C         1.16910395190025      -1.23431939746902      -0.73711750304850
C        -2.55437041605509       1.43075321323737      -0.47408980994135
C         3.19937736247651       1.21191582115030      -0.42604125081336
H        -2.17745406498912      -0.18538168154652       1.75542301808609
H        -2.46334241584784      -1.76013629623669       0.94557610529107
H        -2.89860593704940      -0.57091314437216      -1.23259492492768
H        -4.02135922495861      -0.05693805555577       0.07129371281551
H         0.27191143498359       0.50900995573075       1.79192938252283
H        -0.76512046415278      -2.09898018625675      -1.34670744923243
H         2.82845381431536       0.56664541799887       1.60026418204869
H         3.56812641482802      -0.69201915507168       0.54872801205714
H         1.86600294344212      -1.63917711297367      -1.45955945120693
H        -1.53533053361135       1.49092654625099      -0.91207648754634
H        -2.57165354892557       1.98058408076825       0.49081475760063
H        -3.26575453633138       1.91922189174994      -1.17277379833092
H         3.21847521851351       0.79350244563966      -1.45462000243495
H         4.20514899802867       1.61367682333256      -0.18266007722493
H         2.46170831479874       2.04147541705793      -0.38287965847565
N         1.79206860437742      -3.23740565978659       5.08099897696252
S         0.41269848771853      -3.78002209495191       4.38073577326327
S         2.11153383342580      -1.64236306672910       5.28909634490201
C         0.68826940156639      -3.97815184559462       2.63213707566177
C         1.72976697860927      -1.19202035436941       6.96911067296550
O         0.04863624206254      -5.11396197496602       4.96971846768665
O        -0.71289651142138      -2.80828264813801       4.60547774837027
O         1.29362434036594      -0.80410195669900       4.34551519560343
O         3.57282983929488      -1.39383303729934       5.04193232824455
F        -0.52289212046960      -4.11705612630193       1.98143330964979
F         1.45948649812739      -5.10298412001659       2.40966888418461
F         1.34896113401823      -2.87092461687702       2.13888709910464
F         1.98889420941746       0.15162221479974       7.16110557222308
F         2.50775309985850      -1.93616284910798       7.83575366557988
F         0.39496785062662      -1.44206927473812       7.22407239912196
