29
C9H16N2O2 optimized with DFTB in AMS.
N         0.46699904184203       0.02030037929067      -0.49341766459751
N        -1.23301316430941       1.18572129603049       0.18569602839012
C         1.78084184917877      -0.30726985972806      -1.03092748206577
C         2.67539626186076      -1.01766798285561      -0.00973853217149
C        -0.01260450086978       1.28719196601488      -0.39716187446327
C        -0.33737062195834      -0.82471462159037       0.26392129209666
C        -1.38548102570062      -0.09717605272098       0.69389193151886
C         2.89238011881449      -0.19610938636008       1.25850800512407
C        -2.02918870224452       2.33556020825994       0.57787128976785
H         2.24134479312647       0.63344555710882      -1.34583577307063
H         1.65135206750731      -0.94701210378338      -1.91237095298881
H         2.23925876077584      -1.98810748290875       0.24733447787696
H         3.63733944842339      -1.20533083981533      -0.49746506810570
H         0.19125285917847       2.04191717739526      -1.14379819441754
H        -0.10431072453708      -1.86675675203704       0.39179000049943
H        -2.24541171275359      -0.37363581970344       1.27826807552561
H         1.94757974821186      -0.03818740288185       1.77689260724044
H         3.31172828828830       0.77946604004922       1.01380382753691
H         3.57754151744772      -0.71977353582912       1.92542963249651
H        -1.84296453174496       3.14244632175866      -0.12858436455256
H        -3.08397882932843       2.06031966771881       0.57084286324281
H        -1.74036820374929       2.66191621319796       1.57972900794670
C         2.04790902003144       4.14617898428060       1.72622804947388
C         1.07785511024907       3.41949588916566       0.78731975528404
O         0.35603369553531       4.05754310545008       0.03347867774794
O         1.12854768393223       2.14344257193909       0.88101942321809
H         3.05536134450004       4.04134016134444       1.32527892327445
H         1.78682732145869       5.20040896632651       1.78302328761307
H         2.01598208213381       3.69321468638291       2.71515650955887
