41
C11H22F3NO3S optimized with DFTB in AMS.
N        -0.52019016158116       0.34587027020959      -0.64609303073232
C        -1.37716810850684      -0.75481482198644      -0.11055654876500
C        -1.32462217185983       1.58579485789637      -0.38887613144254
C         0.79133869371141       0.43946198762772       0.08313954440310
C        -2.80368263727764      -0.35920034499778      -0.48143807442758
C        -2.78176597595303       1.17497779381892      -0.58643493505776
C        -0.32577982778260       0.17423276901736      -2.11348924528494
C         1.81744288782721      -0.60117344490690      -0.34896319236040
C         3.06358095428096      -0.47102996857506       0.53383064669828
C         4.16355129264960      -1.43191318813883       0.07194302036257
C         5.40311439811335      -1.31973033006513       0.95709310823015
H        -1.25034213560120      -0.78146729731728       0.97421723594800
H        -1.06330101397548      -1.70891314128065      -0.53412323275873
H        -0.99818308564518       2.37056408869265      -1.07123758636870
H        -1.13242691685375       1.89786466976945       0.63921826059952
H         0.56673836556602       0.34390026711369       1.14894476759893
H         1.18740488821267       1.43916515276346      -0.09937318594661
H        -3.50211370264182      -0.70316574830904       0.28304476196618
H        -3.09341957568477      -0.80879668364018      -1.43349380129743
H        -3.14921365436548       1.49915929343274      -1.56177593671583
H        -3.40771807562504       1.63456501217848       0.18018330546284
H         0.02028991946338      -0.83718654180202      -2.31439824001777
H        -1.27385782906746       0.34492006981261      -2.61716450029633
H         0.40816437927026       0.89774573667115      -2.45942479206463
H         1.40455998602812      -1.61228704559725      -0.27179426104864
H         2.10919937866163      -0.41755673582550      -1.38570068648917
H         2.80148919543962      -0.68104122438535       1.57669656448803
H         3.43232500747566       0.55789778448777       0.47867848397534
H         4.43430635504421      -1.19987381713813      -0.96297766901737
H         3.78631044902849      -2.46032728559596       0.09826910312676
H         5.80423961515552      -0.30609540990405       0.92388490905997
H         6.17268746670440      -2.00950133241820       0.61031157505857
H         5.15847724491089      -1.56263799428376       1.99223342046361
S         1.35135651888384       3.21227392636814      -1.92159292201451
O         2.23811315360556       2.07046782960060      -2.10884030498072
O         1.08509414082659       3.52343060279372      -0.52365483926709
O         0.15018436953133       3.16069774755514      -2.74501578212019
C         2.30367152242203       4.66093960023004      -2.55738222723369
F         2.61671486955644       4.48638391669918      -3.83489497482820
F         3.42659987423267       4.81511931947642      -1.86707800395601
F         1.58702876631940       5.77180910705225      -2.44792732054969
