58
C16H36BF4N optimized with ADF in AMS.
N         0.33657729676310      -0.11840131429793      -0.17893550641721
C         1.19259873000680      -1.18756651389481       0.48590240654224
C        -0.37014191178435       0.68134897024202       0.91650298128712
C        -0.65956435715477      -0.78308087539162      -1.10512260600249
C         1.19988247502381       0.83622026311007      -0.99708506618320
C         2.34977755955493      -0.66719777201127       1.31885514143369
C        -1.39687983324885       1.69309899511590       0.43763995252425
C        -1.67132611860878      -1.70567582548351      -0.44544611248730
C         2.12026429727755       0.20074262096055      -2.02693000342903
C         3.18252079130116      -1.82913822856132       1.86501997806010
C        -1.83551046235485       2.56792582110877       1.61863852238621
C        -2.65456961628667      -2.24720264958034      -1.48629054367915
C         3.06725115921557       1.28270158879351      -2.56256183043107
C         4.34127843509793      -1.32242537449868       2.72163618403579
C        -2.88122624435544       3.60012915277062       1.20641669268934
C        -3.68299656437267      -3.18825705002234      -0.86541101816238
C         4.06465460804825       0.73335480211659      -3.57677115470714
H         1.54982283975702      -1.84166220528900      -0.32475306694363
H         0.50526486068296      -1.77619724213453       1.11081307389828
H         0.42272930604105       1.20198852752215       1.47308652968152
H        -0.83411328686281      -0.06429152267565       1.58058949187626
H        -0.06609540266278      -1.33642356419639      -1.84756758619608
H        -1.17639073613714       0.03423780924349      -1.63056685548961
H         1.78438325427258       1.42507570959898      -0.27938581255463
H         0.50025108379304       1.52703716664590      -1.48589540705218
H         1.98808732750007      -0.04867868853362       2.15462768032641
H         3.00024353734936      -0.00298975399424       0.72951153567790
H        -2.28037109911102       1.20075145510021      -0.00858680716205
H        -0.95179311669279       2.36117186884542      -0.31574816581521
H        -2.23837766900511      -1.16705514411569       0.33173817944135
H        -1.16815536405642      -2.55612187858850       0.04401314036408
H         1.55872400298708      -0.24849841490515      -2.86559053563227
H         2.73355085094209      -0.59713641358577      -1.57576197948979
H         3.57550294755056      -2.43374121797706       1.02605433513463
H         2.54325140174517      -2.50462536092377       2.46422885287581
H        -0.93993696126519       3.07793948286949       2.01004609547027
H        -2.23406005621089       1.93115420597090       2.43004404613046
H        -2.09626088886212      -2.77587358439110      -2.28027779411676
H        -3.17045727961164      -1.40088157407296      -1.97510236066213
H         3.59816056792689       1.73452468635896      -1.70728466324331
H         2.47392018767964       2.09534993992434      -3.01886318697268
H         3.96834293117653      -0.73691968116201       3.57583014574865
H         4.99861105517197      -0.66096042969793       2.13603175295251
H         4.94567589908169      -2.15577262121227       3.10991311532505
H        -3.79364443087787       3.12131454430285       0.81408248836371
H        -2.48111951208325       4.26575951090516       0.42511998033221
H        -3.17178060192764       4.22825603829479       2.06196184419596
H        -4.27248213852052      -2.67247724487353      -0.09099814969498
H        -3.19124132548408      -4.05377421344481      -0.39339829481122
H        -4.38240405426818      -3.57023685005736      -1.62384621091679
H         3.55564168385690       0.31413100440761      -4.45983558533824
H         4.68168180817397      -0.06400698359973      -3.13168589368128
H         4.74439259277804       1.52596539945782      -3.92441172125480
B         2.33886620097532       3.16787713235765       1.52795526890208
F         1.84830038606867       2.29176692670191       2.56006398543367
F         1.23229508129185       3.48840737239644       0.67129693836510
F         3.30190393827114       2.43384452478289       0.74724467941708
F         2.90631469474317       4.31596035096789       2.07312447165486
