39
C11H19F3N2O3S optimized with ForceField in AMS.
N         0.36820345001803      -1.60650992713232       0.32850484415265
N        -1.76092006278444      -0.96332695327647       0.27279765559420
C         1.76808164566750      -1.71179876718414       0.73658862241757
C         2.64897873885349      -0.73196991419706      -0.05043357234813
C        -2.99865007770135      -0.26187204419558       0.61235787732197
C        -0.61791657141857      -0.96611851121489       0.98678767416944
C         2.23762300330554       0.72737509849161       0.19203655860474
C        -0.16982044759433      -2.02878063800440      -0.83276187671281
C        -1.49199119427922      -1.63434758015981      -0.86605023800911
C        -3.20720469322273       0.96431609062824      -0.28739228790991
C         3.18596033899396       1.69558458888420      -0.50680240691466
C        -2.05494656531952       1.96275594247084      -0.17755840377358
H         1.86484842175102      -1.50346736399869       1.82469488618040
H         2.12413064631630      -2.75027931828349       0.56217857423505
H         2.58706223877091      -0.96471596775302      -1.13608383725949
H         3.70367364740313      -0.87411258824877       0.27218679902352
H        -2.97264399748588       0.06523031795342       1.67522297234303
H        -3.85874830380535      -0.95606213193791       0.49634139179384
H        -0.48840394257082      -0.45666185780550       1.93348376759537
H         1.21325904394598       0.89822497377554      -0.19998280111091
H         2.23892782233596       0.94393907802916       1.28254224899994
H         0.36942349735434      -2.55290747363839      -1.61001191504705
H        -2.19319311309895      -1.79481687832441      -1.67475101473813
H        -3.31644811707809       0.64279306568606      -1.34552141418374
H        -4.14836780827809       1.47284510214662       0.01438995128802
H         3.18683418886780       1.51060269363253      -1.60216688944539
H         4.21710406477805       1.57844489411309      -0.11130209148719
H         2.85096900345334       2.73851250333675      -0.32320999147863
H        -1.11844684472300       1.51616542579842      -0.57091620214427
H        -1.90253870313801       2.26494868859513       0.88044718487220
H        -2.28538611909432       2.86718332363933      -0.77864130892274
S         0.81818374138139      -5.97768629015038      -3.69395770275939
O         2.12061413801482      -5.16434320690667      -3.68545312920020
O         0.76857280139048      -6.57170834664137      -2.27886598814723
O         1.17143242273641      -7.19020746496276      -4.56740215212470
C        -0.66549169839442      -5.06510625654748      -4.20638657449019
F        -0.49320854579660      -4.58999915351037      -5.49206884486958
F        -0.87524732695897      -4.00342639549365      -3.34975598590504
F        -1.76032625009578      -5.90656561911341      -4.16879468510983
