46
C12H19F6N3O4S2 optimized with DFTB in AMS.
N         3.15719418413756       0.74113530371191       1.19085208818412
N         3.48473747986091       2.82216206726160       1.62895015878922
C         1.53956795373042      -0.94146719969591       0.41333214326527
C         0.65069810252204       0.05942974622114      -0.33086638596830
C         3.00334744453600      -0.50081584208082       0.44174187004299
C        -0.80413593204374      -0.41769373292675      -0.37802418015253
C        -1.69254231346138       0.58755250561443      -1.11770145657370
C         3.25564215893763       1.95287382524342       0.64769601232404
C         3.34054674772909       0.83646385359610       2.54397689457371
C        -3.14499249335753       0.11670744004007      -1.16550320459096
C         3.54913286594720       2.14983908515032       2.82085646369383
C         3.80822639659522       4.22741617079005       1.43900557080946
H         1.18039365261549      -1.06762226127535       1.43943927453903
H         1.49445478777270      -1.91489646147749      -0.08266439283257
H         1.02724488918270       0.19099738639020      -1.35092403603847
H         0.69854014497105       1.03247152752633       0.17079217705557
H         3.38710447861366      -0.32399022951366      -0.56610879675418
H         3.62840253128359      -1.25363381658541       0.92707239393189
H        -0.85169322432493      -1.38889946069725      -0.88182384511018
H        -1.17530972188573      -0.55292353383785       0.64375219288923
H        -1.64030298452738       1.55869611599701      -0.61352151218914
H        -1.31859769418416       0.72043183335236      -2.13839026229832
H         3.17220380961274       2.19236705210727      -0.39825010559033
H         3.32488860518003      -0.02771256864937       3.18437405804485
H         3.75121316328401       2.65271349130254       3.74987695669581
H        -3.54206579360825      -0.00202475091586      -0.15640054361092
H        -3.75652422574656       0.84661518481185      -1.69603291924297
H        -3.21936274581935      -0.84079616328134      -1.68264188845935
H         4.89275077249083       4.34272289348749       1.49468812302171
H         3.46498494323988       4.53538405899679       0.45346442661851
H         3.32375795430546       4.81895456380017       2.21429902859957
N         5.58223157563856       1.46648457161142      -0.32551684185057
S         6.67486492565816       0.54237360811138       0.40952176686173
S         6.01282872293920       2.92095916963921      -0.84645388813483
C         7.26897221581001       1.39433589255725       1.97706027893377
C         7.14678643531399       2.75413848117801      -2.33051782830132
O         5.92578891412832      -0.58589187457882       0.91745584281401
O         7.86367853205764       0.29340240217803      -0.36070753689984
O         6.73675904393252       3.71570586037397       0.12244517007734
O         4.79339016932096       3.49442683622452      -1.38516307177544
F         7.55175829992842       0.46475928896280       2.87588075241004
F         6.29033185614019       2.15727768026245       2.47460813113445
F         8.33438955270349       2.13490809151207       1.77333823489760
F         6.99042581974936       3.81903734327709      -3.09863747481562
F         6.81502754914761       1.67521971762302      -3.01855435678078
F         8.40345485334234       2.67270379400366      -1.95295734203746
