41
C11H21F6N2P optimized with DFTB in AMS.
N        -0.16252020112548      -1.40760739445287      -0.81108915648585
N         1.78505314196262      -1.53789589889375       0.10013459548554
C        -1.55825929741849      -1.05714939540547      -1.05326732668214
C         2.89229184438997      -1.36164773406098       1.03412555099230
C        -1.67856973970407       0.39010023030417      -1.54872333175337
C         3.53517416128735       0.01984091018440       0.86186380120925
C         0.51993909966383      -1.17297658645713       0.31006351846794
C         0.68962041468989      -1.89603580488792      -1.76132117822966
C         1.91800265638004      -1.97726237252601      -1.18719537461898
C        -1.50666292998166       1.40961857533556      -0.42056282353121
C         2.69114342660045       1.13756009737916       1.47994298119412
C        -1.59882130328347       2.83671788135913      -0.95699216835342
C         3.34827392987777       2.49880277217513       1.26251341440138
H        -1.93797601891362      -1.74942530557731      -1.80867467910171
H        -2.11460319746778      -1.20418550093498      -0.12275949768185
H         2.50687444802235      -1.49531419220933       2.04942939374003
H         3.62091145215888      -2.14893047713668       0.82413864693301
H        -2.67036059893843       0.50106387709557      -1.99700945936420
H        -0.93079940794531       0.56464823764193      -2.32551134703806
H         3.68558154285305       0.21442810109803      -0.20260684821627
H         4.51591131489205      -0.01196217313914       1.34541911628865
H         0.11376088630776      -0.80048530518247       1.23345348944215
H         0.36528401925450      -2.11686958054295      -2.76230509487527
H         2.86594533755255      -2.28152298765836      -1.59319687793518
H        -2.27644742005100       1.24536946753906       0.34298583461644
H        -0.52931340681893       1.26853307452037       0.04956939670539
H         1.70020110784378       1.14132555606520       1.01719376890706
H         2.56334775677434       0.94943267734650       2.55266389272039
H        -2.56630138526415       3.00669082875037      -1.43150550034605
H        -0.81256874029184       3.01257750575944      -1.69012319915221
H        -1.48020228536729       3.54753334601779      -0.13932180793143
H         3.43108655312505       2.70873340409978       0.19695482332345
H         4.34538941462119       2.51871301579874       1.70435293848004
H         2.74429585054291       3.27912547188509       1.72545727252755
P         2.08578727574266       1.26504753929098      -2.76088890467902
F         0.97616913162736       2.43826964135044      -3.04107623444408
F         1.04984710878686       0.13663761340022      -3.42479330404051
F         2.77953379562577       1.50448906656603      -4.20817061752701
F         3.16239951895125       0.03541859518511      -2.42662391488471
F         3.09236045548736       2.33871955856928      -2.04316230079617
F         1.36677553454999       0.97231884374787      -1.26698520656628
