32
C8H18BF4N optimized with DFTB in AMS.
N        -0.16715054899321      -0.34560340729066       0.34737269956688
C         0.74829601182561      -1.39014285193608      -0.22611142274160
C         0.65680283711393       0.27607120608903       1.43784638389273
C         2.15256928808815      -0.79731406671018      -0.15767036948841
C         2.08833319400543       0.29846147459676       0.91607061205674
C        -1.39647689589259      -0.96778204056591       0.94186835360427
C        -0.48370173768336       0.65779639673954      -0.72172010140850
C        -2.24436982950797      -1.72586411134733      -0.06532251412432
C        -1.47718543439820       1.73635789330549      -0.31341537046601
H         0.43233075378526      -1.63667010656899      -1.24005121118547
H         0.67122598411907      -2.27223321937667       0.41185582949884
H         0.57965384995670      -0.37396607170374       2.31138076207097
H         0.26450377489850       1.26278545260173       1.68092289089439
H         2.45776789158040      -0.38540840860660      -1.12272426121208
H         2.85741655690686      -1.57840208484830       0.12936345531706
H         2.77288611823096       0.07871038264973       1.73619821416265
H         2.34243824607916       1.27558211388386       0.49791087956173
H        -1.05082866496938      -1.65574625037918       1.71602636181716
H        -1.96964824729810      -0.16819797143274       1.41527453413628
H         0.46423966286236       1.11722311329257      -1.01050066924797
H        -0.87338354914288       0.10719874648735      -1.58106397676313
H        -3.09105766994663      -2.15187468660084       0.47199120387898
H        -2.62812173589849      -1.08124586486320      -0.85545708379392
H        -1.68055502615379      -2.54304548978340      -0.51168221361731
H        -1.53167630423808       2.46202249505113      -1.12473271641181
H        -2.47309227694576       1.32614562659589      -0.15718979983138
H        -1.16410333965346       2.25743521483001       0.58937838952579
B         0.81913262823290      -2.87440602992568       2.90320464150300
F         1.22362156491293      -3.79793574239607       3.81627463231859
F         0.00903179095204      -1.86478620176072       3.48758054631707
F         0.05092761777035      -3.45708822626748       1.85922850348129
F         1.91734424520132      -2.21667242665933       2.28861693198749
