41
C11H22F3NO3S optimized with ForceField in AMS.
N        -0.11323323918437       0.03184172356843      -0.07401695149780
C        -1.02723833016805       0.54229373924956      -1.14736997669990
C        -0.62931410423690      -1.29037451623169       0.41033848730301
C         1.22779465920111      -0.18521385026118      -0.71921433159412
C        -2.50164812336865       0.64416895334964      -0.72083424497300
C        -2.10348856639484      -1.26334894302301       0.86145195017840
C        -0.02096173913643       0.99047483357507       1.08225792680594
C        -3.01048479150327      -0.70829327711386      -0.23267641842788
C         2.36345387441725      -0.63991009764296       0.23050538333516
C         0.59264286622575       2.36631559569587       0.76183741989504
C         3.66274548163284      -0.85529895101420      -0.53958521525110
H        -0.99461362521490      -0.13682223279104      -2.03164422011218
H        -0.69630548302569       1.53105789184120      -1.52814575585196
H        -0.03616896453976      -1.65748355080846       1.27527583144881
H        -0.53990397031288      -2.06092323067012      -0.39014151458799
H         1.56073425217359       0.73902506507082      -1.24251806419636
H         1.14132082929402      -0.95135416094417      -1.52481791708954
H        -3.10842694717440       0.95909756910971      -1.59715035741667
H        -2.64373184909027       1.41932519199297       0.05993912102667
H        -2.22183319335086      -0.67204364038967       1.79320767295421
H        -2.42434956919870      -2.30085384825997       1.09868476406039
H        -1.01649263249533       1.18625466903756       1.52462961208660
H         0.56190481209001       0.54144373723836       1.91529742658672
H        -4.04316149822100      -0.59622163445492       0.16243805842087
H        -3.04387281877474      -1.42259510030050      -1.08482496854700
H         2.56261853479257       0.12514621683012       1.00763130814954
H         2.10585506076120      -1.59609015756926       0.72857232325708
H         0.62944628172571       2.96541497814555       1.69602569387697
H         1.63266023005033       2.28440858724034       0.38957140894871
H        -0.02609397553183       2.93227843923728       0.03802518248347
H         4.46610270183410      -1.14015564320308       0.17059777266290
H         3.54085427935464      -1.66951971120377      -1.28545644396287
H         3.96607818439317       0.07842254888179      -1.05932499213431
S         6.98073839025978      -4.89901763424259       1.22618065446149
O         6.45203892816093      -5.80216973149753       0.10256245376907
O         8.00354562203446      -5.79325232015705       1.94162972522979
O         5.80752552521723      -4.84815441441963       2.21556858338248
C         7.60953278201337      -3.28522641423736       0.68820473041503
F         6.60852332608803      -2.59771688377647       0.03229135112662
F         8.67706790282259      -3.46860486953644      -0.16864488009531
F         8.02134409658020      -2.56037626021535       1.78959381487303
