44
C12H11F18N2P optimized with ForceField in AMS.
N        -0.54079380167544       0.16715131944687      -0.34774233494558
N         1.64438311214805      -0.11371337747821      -0.05601948419960
C        -1.94353333010371      -0.11025382273575      -0.64691457003493
C         0.48733813492191      -0.70085989634112      -0.41732829144413
C        -0.01538779480113       1.33937352442482       0.06407781849340
C         1.34173248467772       1.16386768029236       0.24681381977672
C        -2.76193447120324      -0.15271913990755       0.63830906566794
C         2.95815972264534      -0.73773552933746       0.02531438125463
H        -2.34331563291058       0.67560701876479      -1.32347229820087
H        -2.03568028848172      -1.09050659761296      -1.16387696553102
H         0.39253815319166      -1.73973987635671      -0.70820772068456
H        -0.57607243632295       2.25181839403825       0.22084655608193
H         2.05220741523629       1.91033688337991       0.57795555197266
H        -2.36775980410824      -0.94310863554556       1.31204740457486
H        -3.82182762073287      -0.38120877318449       0.39905845380746
H        -2.71499423337942       0.82745370993206       1.15794135159171
H         2.90902984283168      -1.79528580998035      -0.31072273187162
H         3.67514010306907      -0.18747770307868      -0.61941799201647
H         3.31325242594489      -0.71506695868993       1.07540943274016
P         4.09362416677897       0.81599299238431       6.02735789755924
F         4.38479944118848       2.43228958680644       5.51076369754796
F         2.47750737830593       0.32042496436357       5.68819885916450
F         5.80023078632079       0.96175106078367       6.18823045225228
C         4.13238324507512       0.59285272499492       4.10060482920911
C         3.36183770729735       1.97296322453740       7.39686960919689
C         4.53932604902771      -0.78862830178486       7.01038225917831
C         5.42968704895287       1.01214805085544       3.35522263092250
C         2.58370686394632       1.29984692919584       8.54633949933938
C         5.21385483335671      -1.92861912754537       6.22238306044575
F         3.10204260235080       1.33790733965391       3.53926541198773
F         3.88352679467182      -0.72746233387454       3.78445720903567
F         2.47211311592653       2.87538870504597       6.82005311079549
F         4.39782369457449       2.69302512748137       7.97591141682823
F         3.37651411633145      -1.32846236802969       7.52927086762560
F         5.35968661166946      -0.47128869741788       8.08448710845349
F         5.31883116667741       0.64321209205119       2.02702285888181
F         6.55196727809748       0.39615932096646       3.86538383004816
F         5.61592624929742       2.38243263631702       3.38969235003286
F         2.00036246174758       2.28674602668096       9.32228676583344
F         1.57220863273108       0.48857129536252       8.06730310698447
F         3.42140547742663       0.57227983197590       9.36766352681354
F         4.30499209509132      -2.55321099054189       5.38917629452349
F         5.67584945753508      -2.87842932137563       7.11656846235934
F         6.29111856437384      -1.48443453731730       5.48826605014809
