41
C11H21F6N2P optimized with ForceField in AMS.
N        -1.12742786154418      -1.69115688731632       0.22238292296440
N         1.09445836158734      -1.66794879385025       0.28225384772361
C        -2.51784456153361      -1.44237149795187       0.59649797394912
C         2.45798338825174      -1.39929452988648       0.73531453019837
C        -3.05065589929021      -0.17592580927795      -0.08778240426525
C         3.07312121224033      -0.21943068908689      -0.03099233565920
C        -0.03838259418623      -1.46674957392955       0.98250760734335
C        -0.66908176018414      -2.05732492034496      -0.99153627541536
C         0.70935409248420      -2.04530455383546      -0.95380593694066
C        -2.28759074962901       1.08007931073957       0.35862594502560
C         2.25391644092891       1.06870326130409       0.13923797691250
C        -2.86585914337680       2.33792799612635      -0.28140984570934
C         2.91245657965598       2.24304602141435      -0.57750791290806
H        -3.13802553941725      -2.31430554068657       0.29711862766468
H        -2.60353226364773      -1.33320425078697       1.70025088488210
H         2.46106573947960      -1.17304955492621       1.82464442709554
H         3.07970771070645      -2.30644385614564       0.57806729062403
H        -4.12669975840108      -0.06379003174243       0.16852823888886
H        -2.97090627869786      -0.28996112372871      -1.19047767793039
H         3.14299920965753      -0.47686273878008      -1.10981920530300
H         4.10502875476072      -0.05389863006002       0.34845399470984
H        -0.07013229350211      -1.10248705340097       2.00247422403596
H        -1.28855777348898      -2.27732711659390      -1.85097212697159
H         1.37820235296656      -2.25392569566529      -1.77816137701925
H        -2.33940582098815       1.18104685489096       1.46459586357605
H        -1.22029645398644       0.99759213693837       0.06356341305643
H         1.23773497916597       0.92734414953613      -0.28620428934729
H         2.15247460211570       1.31367955007671       1.21886274624607
H        -3.92460153704388       2.47567813269335       0.02418250109648
H        -2.80769783458987       2.26914734597567      -1.38892124546510
H        -2.28258921564303       3.22398930391932       0.04883760593252
H         3.00927372617803       2.02737791493238      -1.66329650479945
H         3.91814282031389       2.44190218182415      -0.15052772203258
H         2.28661495542634       3.15248068060979      -0.45253166432395
P         1.39712568135483      -6.00784594864757      -1.43917482889347
F         1.24466283031937      -6.84793540772976      -2.93040593875127
F        -0.03825509600844      -5.18973740449198      -1.91054478607168
F         0.40792565136874      -7.05784049640570      -0.50547187571824
F         1.62719253157737      -5.02992794256793      -0.04469277674720
F         2.69327932563305      -7.07886986459866      -1.08399793559624
F         2.43900151808633      -4.85795416074306      -2.17785376195692
