39
C11H19F3N2O3S optimized with ForceField in AMS.
N         1.89844962250472      -0.93858336687623      -0.22611937177350
N         3.13191374324611       0.90768862886259      -0.11785910015619
C        -0.38320709657193      -1.87561619854239      -0.06928853672042
C        -1.04579071156710      -0.51515025279571      -0.32848612662137
C         0.99682422187655      -1.97263894484014      -0.73155882620918
C        -2.45757607180427      -0.46706394485118       0.26345662500437
C        -3.10014948514508       0.90383869219328       0.02832891979012
C         2.35986641631396       0.13178830576209      -0.90300410948996
C         2.39813828606778      -0.83690674350616       1.02241007155576
C        -4.50824174775565       0.96007648056414       0.60936665854703
C         3.16439280705244       0.30913252483837       1.08871412906520
C         3.76599101486322       2.16929914403246      -0.47681708494290
H        -0.28206430650950      -2.04261395009962       1.02535784869156
H        -1.02676038643221      -2.68343607292684      -0.48120668372396
H        -1.09899254241211      -0.33193411269061      -1.42441135841041
H        -0.43320148883085       0.28923554194110       0.13451910340600
H         0.88278963030103      -1.87562326835366      -1.83373415520099
H         1.43539656164712      -2.97289932486519      -0.52586962514242
H        -3.08303480743871      -1.25422883387021      -0.21234908443595
H        -2.40578758782472      -0.66689792273409       1.35660433784164
H        -2.48211432978048       1.69465741801959       0.50740891247978
H        -3.15561285381493       1.10843145607272      -1.06290943248505
H         2.11753485482779       0.35362671031146      -1.93531402904854
H         2.20699804238711      -1.53413490719735       1.82791791982854
H         3.69279792021302       0.68511244684212       1.95531799710268
H        -4.48142875203404       0.77140218193443       1.70369052239700
H        -4.94182454747938       1.96668185910515       0.43169015489512
H        -5.15570208434771       0.20156389557448       0.12024617174134
H         4.86534548033769       2.08566532055024      -0.34684012811826
H         3.54646731577612       2.42950296352782      -1.53423749933893
H         3.38048908568042       2.97871874586033       0.17838549891153
S        -1.47640901865784       4.03341771325921      -2.96670339363376
O        -1.36592886795026       3.02079638499201      -1.81784709596544
O        -0.95009953664001       3.24551035781438      -4.17567253774915
O        -0.33490701570388       5.01754634006311      -2.67063071078104
C        -3.11362487062640       4.78990225690531      -3.18683560414350
F        -3.47426193615320       5.45782705825031      -2.03209969767166
F        -4.04589666794408       3.80653406761337      -3.45811440426334
F        -3.07104426507074       5.68438864655933      -4.23948757833175
