32
C8H15F6N2P optimized with DFTB in AMS.
H        -3.49708737060701       0.15253207608214      -1.60532450877722
H        -3.12684254087266      -1.50856643153536      -1.10124902092508
H        -2.64160745319500      -0.94629869411598      -2.72967369072345
C        -2.77651085148400      -0.65826377670604      -1.68843865807222
H         1.64346527526367      -0.39176478627757      -0.35941904335392
H        -0.15679097550194      -1.58153622680943      -2.09535146592935
H        -2.17327901240197       1.28708042090327       0.23987685251325
N        -1.50615664668582      -0.21673753947767      -1.13826281874994
C        -1.38062944862323       0.68772839124198      -0.17173911489839
N        -0.10864746134383       0.70589030370448       0.21361365400551
C         0.59138963011699      -0.22349176329471      -0.50822563314723
C        -0.29130679007653      -0.80659503553876      -1.36121625911631
C         0.38183713919011       1.41512767938455       1.39226596595700
H         1.28407800102833       1.96998302744145       1.11980438814212
H        -0.40017117682226       2.11719037257878       1.69044041792170
C         0.65209980994717       0.40574300697111       2.51616895899346
H         1.61159699058893      -0.09038123159821       2.34119448394901
H        -0.13125210521078      -0.35437181508546       2.49756945799401
C         0.64420808944459       1.09363295008094       3.88367371620845
H         1.47124883519223       1.80945467066451       3.94727825799712
H        -0.29386258342490       1.64609574897263       3.99894633444303
C         0.75327171755611       0.06114682943390       5.00378967751012
H         1.67819167468212      -0.51057309928356       4.91386067934866
H        -0.09035526071624      -0.62800522785308       4.95879914922691
H         0.74486614549024       0.56170514525988       5.97192381607144
P        -3.11561744694500      -0.70607902756708       2.33071603851832
F        -3.80929042829372      -0.20894906525944       0.88368293705122
F        -1.83444751698472      -1.31930520081014       1.43265491176108
F        -2.30918549323296       0.77170944632047       2.38220555730338
F        -2.35087828352898      -1.15371761280385       3.70361073187509
F        -4.35112843791245      -0.05695723015779       3.15934169938752
F        -3.87412839903653      -2.14008198936593       2.21178269621464
