52
C16H33NO2 optimized with ForceField in AMS.
N        -0.07396551893194       1.47683923922625       0.00920543764031
C         0.52795065423639       2.41007006653684       1.01201152398970
C        -0.75811222318764       2.36248384142688      -0.98261048747179
C         1.00434168769773       0.69575579089844      -0.68093460906456
C        -1.07475887369220       0.59245301143519       0.69043017675667
C         0.00564402602917       3.80780200985449       0.73752890894210
C        -0.31309865953735       3.78957184553664      -0.73106329926267
C         1.75972106897685      -0.29919853117425       0.23366828691913
C        -1.76427746868217      -0.43400650829800      -0.24052405382295
C         2.98084067657536      -0.88409411890064      -0.48583668362502
C        -2.87156119044533      -1.18613178089327       0.50738366065096
C         3.71879516620546      -1.88940204773278       0.40591811412895
C        -3.57652883025211      -2.19055712645676      -0.41146923546983
C         4.92725399383685      -2.47997064393872      -0.31463467751624
C        -4.65149011173730      -2.96587302618611       0.34460523255678
H         1.63843820995249       2.45914709640731       0.93088756628678
H         0.30724615305023       2.12670675542251       2.06705914573001
H        -1.86654962651257       2.34725270776266      -0.86661600036086
H        -0.55161309802539       2.08277342138191      -2.04119440154851
H         1.74387479374171       1.40022769883233      -1.12852083477139
H         0.58728796653289       0.12715868998310      -1.54129073602476
H        -1.86279991918183       1.22170988393067       1.16639150956356
H        -0.59798367226662       0.03801961019612       1.52833536365901
H         0.75909510613069       4.58827492825754       0.98141480643044
H        -0.92294042227009       3.98617882638586       1.32393848035081
H        -1.10885158947584       4.52339090958236      -0.98554203235032
H         0.60397503909203       4.00972477249477      -1.32127798592054
H         1.08903353374603      -1.13787780943377       0.51512131398498
H         2.09634682391538       0.20232098456855       1.16485226965630
H        -1.02585681391293      -1.17897965933045      -0.60273826286042
H        -2.20587933333186       0.07435577871943      -1.12283545028977
H         3.67559502603549      -0.06049974770440      -0.76149702574311
H         2.64859589647402      -1.39306028770977      -1.41747996190322
H        -3.61857730575505      -0.45785287254833       0.89280144849052
H        -2.42628509839647      -1.72605368632546       1.37214395890850
H         3.03117215504692      -2.71548279273181       0.69040060245192
H         4.06479818349642      -1.38423413035298       1.33395042138556
H        -2.83578395474565      -2.91085430842396      -0.82201804905825
H        -4.05134254898641      -1.65181243525927      -1.26031970303086
H         5.44018448274504      -3.20519069743854       0.35145398065031
H         4.60565037962755      -3.01021452436095      -1.23618968832612
H         5.64528643984156      -1.67684206667033      -0.58540296201436
H        -5.15171054716979      -3.67788146043945      -0.34496039312471
H        -4.19657834267529      -3.54021016000532       1.17951315477686
H        -5.41516159643530      -2.26964178020294       0.75200723873289
C        -0.93866183392967      -0.26479589819302       4.99726791720430
C        -0.51802977547537       0.84141849531288       5.91290926691362
O        -0.17679382349314       0.58887323613923       7.05700028861783
O        -0.51406446754412       1.99732534459795       5.52070901327963
H        -0.09334134470763      -0.96968389792764       4.85212408706274
H        -1.79694097540323      -0.81069701565297       5.44219672393911
H        -1.24432902022593       0.13960045970199       4.00896771909999
