36
C10H20F3NO2 optimized with ForceField in AMS.
N        -0.00887990042192       0.00625943089758       0.00347443787242
C        -0.86139000645913      -0.24735373335980       1.21721590083739
C        -0.85051954726873       0.26037668421657      -1.21790636578176
C         0.83770323478224      -1.21194464427067      -0.24602520961830
C         0.83888211725669       1.22285583486954       0.26066556111687
C        -1.91809771338762      -1.36081797346052       1.07462623012742
C        -1.91022413124234       1.37188643048000      -1.08392885017561
C         1.90247315477210      -1.07412912292943      -1.34989469252078
C         1.89844216673921       1.08121442186535       1.37159136817222
H        -0.22741265932427      -0.54055501373611       2.08164309603505
H        -1.38370120946142       0.68125986306838       1.53622130835350
H        -0.20879339689584       0.55455947532034      -2.07645138176205
H        -1.36925597210351      -0.66842076159228      -1.54250988480459
H         1.35161905872927      -1.53599525695785       0.68576006162692
H         0.20156865082482      -2.07221723240038      -0.54682246179208
H         1.35918991095468       1.54711404519649      -0.66748818248665
H         0.20156359326994       2.08367963518877       0.55716996549990
H        -2.48738350604767      -1.43421435445910       2.02507205522887
H        -2.65114619775402      -1.14535639089796       0.27324250145154
H        -1.45089609674351      -2.35024358866288       0.90055134108301
H        -2.47245151072159       1.44351608716652      -2.03878701415752
H        -2.64966084143608       1.15509288646928      -0.28878209633220
H        -1.44591777787131       2.36198554743819      -0.90591733519948
H         2.46985527557414      -2.02516250963250      -1.40484342765935
H         1.44369645044574      -0.90892002729917      -2.34482223327885
H         2.63547198392244      -0.27254985836458      -1.13601274696691
H         2.46538888436012       2.03314447126395       1.44510894040574
H         1.43363714374571       0.90313254332536       2.36130355019801
H         2.63417848255129       0.28300861398236       1.15343183262725
C         2.94196003040693      -2.67613418156832      -4.50167726419321
O         1.91800466759902      -3.28078475275007      -4.22422255602994
O         2.94341091044014      -1.89057906654324      -5.43594350458477
C         4.19451980859788      -2.89110956546938      -3.70398968168989
F         5.19244195217201      -3.37170140980635      -4.53062950600071
F         3.97522529649439      -3.80483878317474      -2.68762377027871
F         4.60296215550019      -1.69117930881333      -3.15133576722274
