59
C17H36BF4N optimized with DFTB in AMS.
N        -0.49134470904314       1.41209527364851      -0.02654506570820
C        -1.27818811706175       2.02762124830208      -1.14108424390304
C        -0.11238894265528       2.48529558619830       0.94813040743672
C        -1.26180417312735       0.32360450667442       0.68715143833384
C         0.76717009391450       0.82952574231952      -0.64260622694820
C        -2.51969926361333       2.75979343268277      -0.64775718268450
C        -1.29796837368963       3.30120419847288       1.45675618141580
C        -2.11766902290181       3.88197803240640       0.30664082335415
C        -2.02073811830747      -0.63806260081607      -0.22572711218355
C         1.90393039487381       0.54404199176988       0.33512074573593
C        -2.47663394670710      -1.85369990657213       0.59477199505003
C         2.98425982967175      -0.27304647814814      -0.38522443078534
C        -2.94516539276476      -2.98439046850801      -0.32500489330571
C         4.08257834093732      -0.69803133102101       0.59343199663662
C        -3.17118856537436      -4.27304814728888       0.46994054904324
C         5.04697783999102      -1.68521027743988      -0.07000220978909
C        -3.62650778344880      -5.41343134839759      -0.43871626567447
C         6.17294796155048      -2.08655892090627       0.88086444014241
H        -0.61639124091972       2.73669861228216      -1.64684650148105
H        -1.53762292075067       1.23427914962047      -1.84298322900494
H         0.38789731367418       2.00143591174735       1.78818550874239
H         0.59792191751198       3.14201456403978       0.43794679623482
H        -0.52808802393712      -0.23455611926282       1.27280598360536
H        -1.96158576394226       0.80437324722053       1.37207617753835
H         0.47037828629789      -0.09814000579811      -1.13478097166794
H         1.10749520167901       1.53975676324376      -1.40135140003753
H        -3.03115068253980       3.17419390874550      -1.52029104920662
H        -3.20632829691693       2.06975116190716      -0.15215255455270
H        -1.93895116709980       2.68926762461326       2.09640075861218
H        -0.89389905880770       4.10892863895586       2.07250956052975
H        -3.00923795465058       4.37446057876295       0.70153230144711
H        -1.52524764407955       4.62847959851672      -0.23231152207792
H        -2.89125332912989      -0.14741695503894      -0.67275139326982
H        -1.36976088536146      -0.98714447300483      -1.02920265386212
H         1.54005328237144      -0.03244218631290       1.18727014294818
H         2.33788649252037       1.47853961436358       0.70494446795614
H        -3.28059032617158      -1.55867710369537       1.27809024479285
H        -1.63737978959014      -2.21588610470949       1.19153395798081
H         3.41199410543272       0.31700827911979      -1.20400915115694
H         2.52553498269019      -1.16818407247537      -0.81288585679111
H        -3.86597462186660      -2.68945384138033      -0.84227347436801
H        -2.17624062856294      -3.16598775004815      -1.08302003766411
H         4.62796764608704       0.18432292089028       0.94878576233733
H         3.61902572157366      -1.18365258557694       1.45737737473091
H        -2.23419485438456      -4.55383476665392       0.95873494251266
H        -3.92406168440492      -4.09960310253031       1.24717873510513
H         4.48627653956524      -2.57721333107104      -0.36617224816928
H         5.47400520742346      -1.23594855897079      -0.97395130623347
H        -3.76905456727468      -6.32302393612132       0.14575303024749
H        -2.87664413366850      -5.60849080170638      -1.20669602750421
H        -4.56981656092926      -5.16388013956178      -0.92833681012518
H         6.75671375824092      -1.21303400419564       1.17742769889257
H         5.76443232120611      -2.55155363917795       1.77895338474304
H         6.83875421107202      -2.79951999386903       0.39339359062656
B         0.81471685822267      -2.76778773699559       0.68915967084722
F         0.45496265822551      -2.10867862634418      -0.52774565517988
F         0.00705407440478      -3.87391642083229       0.86998241674348
F         0.56924640412156      -1.82755360335063       1.73701111395681
F         2.16100885012378      -3.07743406532174       0.65485847715506
