35
C9H17F6N2P optimized with ForceField in AMS.
N         1.03745735469403       0.32608026528595       0.45182623651416
N        -0.99447248693291       0.31534466014297      -0.45117535945531
C         2.29259984949666      -0.13748196579725       1.03966932599501
C        -2.24846568000873      -0.16107382911532      -1.03117516396631
C         0.02334538439574      -0.43988642298884       0.00499762841052
C         3.46750157896264       0.08858149594237       0.08174939276813
C        -3.42307942814406       0.08317720755053      -0.07788114968737
C         0.64883899067284       1.60509049813916       0.27281178461336
C        -0.61213186461892       1.59843718885638      -0.28778624367670
C         3.32973392689786      -0.73733783286775      -1.19633355402640
C        -3.30622682913741      -0.74814785453762       1.19829822200619
H         2.22140363634264      -1.21891882941310       1.29088962053673
H         2.47748842068853       0.41276715203002       1.98755121019257
H        -2.17629945407549      -1.24673231445986      -1.26314843671611
H        -2.43325875440060       0.37222709324560      -1.98872485839804
H         0.02602578055975      -1.52299978889372       0.01161287065178
H         3.54169111076222       1.16634719682298      -0.17946487034799
H         4.40799321619737      -0.20479502386254       0.59630117354560
H        -3.47439619766369       1.16082551544219       0.18714490301577
H        -4.36774571522452      -0.18953091604641      -0.59626649489101
H         1.23507768236114       2.47659007095477       0.53423819071178
H        -1.20336615931931       2.46373138175389      -0.55847139171095
H         2.45520917342140      -0.39345407663831      -1.78816709182198
H         3.20609835427336      -1.81384430744092      -0.95114152778090
H         4.24270401721312      -0.61718565460155      -1.81651018777029
H        -2.41878040602213      -0.43311386858134       1.78688401224953
H        -3.21781561685580      -1.82759368740385       0.95083314746043
H        -4.21285226645989      -0.59980540218185       1.82189816092262
P        -7.42460153503386       2.40194760191511       1.11239925465568
F        -6.92265385926351       1.45954384924017       2.45825293087716
F        -8.98462166733713       2.70222644762875       1.76601258093164
F        -6.85135425900005       3.79576114210386       1.93684052812689
F        -7.92958431939061       3.27158882234509      -0.28031876983078
F        -5.89440602484537       2.27390427005707       0.34492967270782
F        -7.94570438040529       0.91512058057338       0.42762487138676
