31
C9H20ClN optimized with DFTB in AMS.
N         0.20138684029163      -0.18395019647362      -0.25332697673798
C        -0.73450044996920       0.55005058079515      -1.17504461053654
C        -0.52215544554987      -1.36842473507943       0.31377036730600
C        -2.01635429275683       0.98932889126806      -0.48844859389412
C        -1.82588491690722      -1.00156324864940       1.01679461732711
C         0.69134760335695       0.68405583302341       0.87550888327138
C         1.34599982256335      -0.66720032670151      -1.11181513114660
C        -2.75576320513404      -0.21533399651578       0.09239300356929
C         1.49234377266159       1.90718118641845       0.46036299005227
C         2.46840809146315      -1.36058528649190      -0.35963035474075
H        -0.97089720361939      -0.14265627891468      -1.98694891668691
H        -0.18441396582264       1.39684561274585      -1.60045089205246
H         0.14955444940337      -1.87247647660310       1.01171943053614
H        -0.73138177629709      -2.04198746096826      -0.52224102878910
H        -2.63950702494153       1.47619397800462      -1.24277018350492
H        -1.81198406950492       1.72411064521206       0.29464603150731
H        -1.62451637376111      -0.42704160978731       1.92501807484553
H        -2.30650329654530      -1.93604273754744       1.31933486886634
H        -0.18558387798932       1.00382503939714       1.44103921108919
H         1.29124230474082       0.04046533595185       1.52414660622822
H         0.91122618772524      -1.35177275884805      -1.84490175026783
H         1.72559775695926       0.21357948247358      -1.64748708932747
H        -3.63351811201188       0.11544294167533       0.65245893755318
H        -3.09464893218762      -0.86409100757836      -0.72170267045150
H         1.77943293790937       2.43128904732039       1.37257185023048
H         2.39384709989621       1.64135046139074      -0.08529420465986
H         0.90677456162052       2.58162391497337      -0.15868250104290
H         3.18009447656745      -1.71650297734864      -1.10464230392480
H         2.99426881729155      -0.67785335564321       0.30539019337426
H         2.11943204544362      -2.21899771224437       0.21422484942634
Cl        1.57633855520387       2.09795634214503      -2.73536037211929
