23
C7H13ClN2 optimized with DFTB in AMS.
N         0.01331980501267      -0.45405846208207      -0.52753177604378
N        -1.96298884956547      -0.38236234160096       0.33740237074132
C         1.29602658598520      -0.00908620058546      -1.05561438502650
C         2.28702177394611       0.19838837223037       0.09533799081704
C        -1.01765487844780       0.35323467761945      -0.25954709271950
C        -0.22349408766335      -1.68620486571498       0.03841265563015
C        -1.46184404755881      -1.63773431999702       0.58473702839161
C         3.58787777310026       0.80728721675327      -0.41724281635786
C        -3.12598821422194       0.20868690453341       0.97404662441997
H         1.12638566798207       0.92791657638722      -1.59293286894190
H         1.65964532201523      -0.76305669836845      -1.76112472632290
H         1.82822910135626       0.85818767998514       0.83730009234340
H         2.48720984583866      -0.76481347259238       0.57412734237685
H        -1.16315952945340       1.33190779362104      -0.67786029225045
H         0.49537401299132      -2.48467570903269      -0.01269176937103
H        -2.03271860190629      -2.38521451745111       1.10706768597734
H         3.39977165479510       1.77815685448749      -0.87725544860758
H         4.05799366168024       0.15601940783417      -1.15649778338197
H         4.27910990351106       0.94567718302951       0.41342779355748
H        -3.71554618489505       0.74852161908085       0.23325404249431
H        -3.72506129805060      -0.57729685689820       1.42873817868291
H        -2.76130970760921       0.90454530265315       1.73546368078399
Cl       -0.32568570474229       1.70160381950826       1.71521840220710
