48
C12H22F6N2O4S2 optimized with DFTB in AMS.
N         0.42432031834856      -0.08846462012965      -0.53020955938644
C        -0.94058213531719       0.00133174118554      -1.13812949632813
C         0.13228987238130      -0.24592741450718       0.93069838745857
C         1.20473933290509       1.17058099478783      -0.79146212877372
C        -1.79591800070488      -0.99382549279240      -0.35723622056600
C        -1.09605189939700      -1.14864018908640       1.00269037349574
C         1.14734070401916      -1.31925556500644      -1.02804945358487
C         2.44959539578953       1.31408042008000       0.08463457189501
C         1.50721184495729      -1.30215076878629      -2.50322173363574
C         3.47603146027231       2.23058546410009      -0.59400153620826
C         4.77220475777582       2.27413458903908       0.21154664404807
H        -0.88796368086257      -0.21010488731157      -2.20495962651447
H        -1.30351926057068       1.02124779703311      -0.99295727793115
H         1.00314389132659      -0.65968383270557       1.43562397152473
H        -0.08619812861965       0.74621431493044       1.33179859058792
H         1.46997933929958       1.16308169383479      -1.85005501890071
H         0.52439895000915       2.00866196795368      -0.61661970586540
H        -2.81095187355942      -0.60881279001492      -0.24690306981151
H        -1.85161504717417      -1.95197876929004      -0.87720794706880
H        -0.80620167936439      -2.18692471420784       1.17386683608846
H        -1.74249151990546      -0.83754400976503       1.82478246299888
H         2.05646454400216      -1.41370444587891      -0.43557868491439
H         0.49979567567462      -2.16989641790603      -0.80882453970339
H         2.17086102283305       1.72182180556501       1.06048103150939
H         2.91297204793124       0.34260603131796       0.24926068993202
H         1.94180973123352      -2.27586157435822      -2.72968627482931
H         2.26197980055244      -0.54939695093218      -2.72066761678567
H         0.64084789704200      -1.14989857049331      -3.14553345217158
H         3.68881969232614       1.84254959846339      -1.59556353056398
H         3.05737988110168       3.23762593843716      -0.69897722274098
H         5.20298367487585       1.27578743749487       0.27949841717154
H         4.58595587284312       2.64546414620417       1.21994982438191
H         5.48830579025536       2.93335697212241      -0.27838689971375
N         5.01784205246537      -2.90754148586938       0.30160595944898
S         5.53835662552959      -1.94872771616944       1.47623133937191
S         4.68684299720675      -2.23673928400837      -1.10785668964351
C         3.95817859960538      -1.40559942124786       2.36224733408172
C         6.29030603638291      -2.08044701593967      -2.06899321996296
O         6.19504527249306      -2.76752932863286       2.45324490691116
O         6.15639808078751      -0.71156776167335       1.07136099309656
O         4.16529841293088      -0.87411616731875      -1.07177553413519
O         3.91013785962044      -3.19502800538231      -1.86146756982944
F         3.92237410903129      -0.08740725935990       2.52332885045432
F         3.84779787071290      -1.97736280759650       3.54672643746309
F         2.86417664466710      -1.73920874275809       1.64957435403533
F         6.00398884419471      -2.08785788489445      -3.36409184896735
F         7.08794786530962      -3.09918274013920      -1.80029482859778
F         6.90785463988230      -0.95268173508745      -1.77757230032081
