37
C11H18F6NP optimized with DFTB in AMS.
N         1.97355810188162       0.25513654663908      -0.89441847257473
C        -1.82857241653182       0.38901654121930      -0.68819112990459
C        -0.40263283586836       0.13489504286899      -0.18934868618327
C        -2.86080156885600      -0.14574187193726       0.30769241317136
C         0.59724513128710       0.64696324969925      -1.22641474416529
C        -4.28701362278212       0.08171727204921      -0.20355573315465
C        -5.32331380806616      -0.45675155852611       0.78114745727959
C         2.29652728076617      -1.04798405261785      -0.89064069830898
C         2.90165764770651       1.19781096059696      -0.67041455422748
C         3.59923049948950      -1.44532502122876      -0.66007670313967
C         4.21364151390480       0.85038387814162      -0.43001174802818
C         4.57778427663785      -0.49152965791069      -0.43062709647575
H        -1.95824576370214      -0.10818532626170      -1.65417705962899
H        -1.97886443928763       1.46368024694800      -0.83696427234665
H        -0.23249773020339       0.63720121575339       0.76885029882228
H        -0.26054809372226      -0.93861420417944      -0.04394474383300
H        -2.69490263539380      -1.21734309659626       0.46075413114539
H        -2.73219673893993       0.35448631921744       1.27439620080812
H         0.56039444587922       1.73660849425919      -1.29420472802397
H         0.37414401148765       0.21965558033992      -2.20727265579531
H        -4.45229964085705       1.15363772087428      -0.35729656553332
H        -4.40897235112227      -0.41797766945199      -1.16988239930318
H        -5.22897634204167       0.04106299122660       1.74760584135317
H        -6.32880192491371      -0.28258161599440       0.39742955535692
H        -5.18874683998526      -1.52916861775694       0.92875988021746
H         1.50215569468927      -1.75672817806087      -1.08617356132570
H         2.57415209573879       2.23018022599639      -0.69736521206911
H         3.83729659518193      -2.50104970196527      -0.68016638660176
H         4.94557065892306       1.62860825764208      -0.25555362389903
H         5.60731919661680      -0.78115685332510      -0.25906515127704
P         0.32742122662886      -2.08164415665209      -3.76629936702462
F         1.69019580987596      -1.18889651973221      -3.29355245366572
F         1.19189959716189      -3.45143983452122      -3.53434543880429
F        -0.12585851309693      -2.13025209608501      -2.13629834461941
F        -1.00297333843140      -2.91973300401482      -4.16043082862072
F        -0.49876055486632      -0.64879785571908      -3.89039008536830
F         0.80520893711123      -1.97520260633466      -5.31340594435163
