31
C11H14F3NO2 optimized with ForceField in AMS.
N         1.13096793452905      -0.00995577762090       0.51537555431493
C        -1.24208761937323       0.00289469542452      -0.12731883360046
C        -0.24244730373963      -0.01759023146657       1.03282201562171
C        -2.68504683319799       0.00185007282810       0.38671494086693
C        -3.67856350258967       0.02181947170318      -0.77005858733164
C         1.76216133200812       1.18142005554162       0.28213000413840
C         1.76071569879283      -1.19365967359633       0.24261784943910
C         3.06037938842115       1.20705289637604      -0.23281998936728
C         3.05894441265920      -1.20367703261115      -0.27291542728377
C         3.71049342642733       0.00560011669776      -0.51082661964405
H        -1.07602085343208      -0.89131309945394      -0.76769101764157
H        -1.06865677636276       0.91344536150083      -0.74218724708074
H        -0.41163761631135      -0.92162806730514       1.65998018980176
H        -0.40984843874833       0.86500822629625       1.69027032995058
H        -2.86468919594228      -0.90829667418378       0.99968275955877
H        -2.85708675507456       0.89637666531393       1.02431125232870
H        -4.71352623779576       0.02662101738013      -0.36817337109641
H        -3.53362327254074       0.93251418503553      -1.38958958729182
H        -3.54776189991957      -0.87901213148688      -1.40701403744883
H         1.25989960795703       2.11970181614061       0.48639892750111
H         1.25732609638305      -2.13761303537295       0.41556587766146
H         3.55512383329951       2.15143362201725      -0.41942378761604
H         3.55261019082373      -2.14189190795837      -0.49083123826190
H         4.71473148573611       0.01173226350372      -0.91417455561074
C        -7.23948288846511      -0.94977482494413      -4.63360419318530
O        -7.72356662267048      -0.28717408090346      -5.53710150338919
O        -7.80776484672384      -1.96216511743958      -4.25714806396206
C        -5.95708347997853      -0.52713527100171      -3.98165796689250
F        -6.17230889434654      -0.33948737309606      -2.62987019853373
F        -5.49530169964483       0.65542631918573      -4.53322088407243
F        -5.00148858337981      -1.51052030790428      -4.15926827377298
