31
C7H16F6NP optimized with ForceField in AMS.
N         0.16219895166397       0.28115848399338      -0.06842475895272
C        -0.43138775164260      -1.02879967007223      -0.45025377740152
C        -0.93640191911860       1.03984171981121       0.60244958986233
C        -1.93858633951377      -0.87321612396734      -0.43135053765201
C        -2.17654936942741       0.15981840259867       0.63708263710882
C         1.30270024659723       0.11009200697235       0.88316187612828
C         0.60069870134841       1.01935390559044      -1.28172437139660
C         2.49631778076243      -0.68007599132365       0.31850832986276
H        -0.17335425362268      -1.82540911032107       0.28532057666736
H        -0.09341608959966      -1.38604233830567      -1.44955847578405
H        -1.19517853315568       1.98076728182213       0.06393708940248
H        -0.68267563207950       1.34962984742631       1.64223838772395
H        -2.45128975908357      -1.83101264066060      -0.19495033514281
H        -2.29192985105504      -0.48994397511946      -1.41377168049957
H        -3.10398314726991       0.74077843381997       0.44072037385403
H        -2.25507094376860      -0.33999304587583       1.62823159374626
H         1.67895302943785       1.10554457837852       1.21158547677402
H         0.95359069167769      -0.41474462136193       1.80225385265527
H         1.33576093856204       0.43481847387706      -1.87502236332810
H        -0.26138108919327       1.22481453914038      -1.95601031410149
H         1.06549498868253       1.99229002559206      -1.00649284791232
H         3.21287380681273      -0.89006465617913       1.14079631908630
H         2.17826740744733      -1.65015947173744      -0.11409329328246
H         3.03646804766257      -0.08843619742797      -0.44850567046647
P         0.04262764596308       5.09199073142170       1.81319501071865
F        -0.81409878575655       3.89200303898334       2.69493283633259
F         1.36003891170080       4.00020471877564       1.65550740604848
F        -0.47639772577070       4.54564502699260       0.26956346487849
F         0.88631445715776       6.38870395492957       1.06559516085040
F        -1.38651158842691       6.04068436859833       1.91187776338315
F         0.67766240620801       5.71524852662865       3.28311101803647
