55
C15H20F18NP optimized with ForceField in AMS.
N         0.26166578129818      -0.13535842824411      -0.15836896177819
C        -0.60181905838190       0.67371851348376      -1.07906767135788
C        -0.49698150586095      -1.35708896451010       0.26809843211361
C        -1.97196539733725       1.04669266961601      -0.48894067674407
C        -1.88241271744544      -1.05667520541494       0.87512258160840
C         0.67347438585051       0.64910472851306       1.05808493000887
C         1.45479544048047      -0.56960032943052      -0.96322068586414
C        -2.72979576604012      -0.20801738810853      -0.06762439762540
C         1.54024983858889       1.89289888948169       0.78891011986030
C         2.53021912785323      -1.36079094795117      -0.19517766901579
H        -0.80042963500749       0.10262111066792      -2.01654582301315
H        -0.08918630797696       1.60157381289207      -1.40840995398629
H         0.07131318806849      -1.93311368470610       1.03012955601951
H        -0.65466208798333      -2.03996645135042      -0.59856430673432
H        -2.56511187696354       1.57842844443634      -1.26418619607647
H        -1.86524578336697       1.74403831201579       0.36726740216298
H        -1.78430867857176      -0.55108901991625       1.85735724038053
H        -2.40913664976856      -2.01734790191033       1.06228940415065
H        -0.20776129629465       0.99942564934953       1.62916709653360
H         1.22263140376145      -0.00160711340717       1.77282715060726
H         1.13099223074041      -1.20934451860352      -1.81650068436430
H         1.95016141697668       0.30576597823821      -1.43851803840287
H        -3.67471610592690       0.08162605559184       0.44046931490228
H        -2.99244752904207      -0.80450443962324      -0.96917906784317
H         1.80105267226092       2.36159315979112       1.76127915534237
H         2.49385974852675       1.63733879029726       0.28686341480781
H         0.99215701533934       2.65424520960437       0.19963467554354
H         3.33330588773524      -1.65098620417274      -0.90514043837679
H         3.00391206934822      -0.74947820860248       0.59845532273960
H         2.12330526310662      -2.29546020764805       0.23823384645401
P         0.53877114054837      -1.88350241822473       7.07567367880686
F         1.80309034590792      -2.91515755565729       7.62701153217607
F         0.99789118896242      -0.22421603172212       7.16180395258985
F        -0.00915414913924      -3.44726317468481       6.61154096755361
C         1.80120911520548      -1.72036399021456       5.61199995956826
C         0.46590952332308      -1.86203189881576       9.01187173047511
C        -1.29424753511181      -1.51918256031184       6.58266179074283
C         2.17730385074030      -3.01544993023866       4.84360693124364
C        -0.54476503052771      -0.89855888013193       9.66975848305839
C        -1.63353493680251      -1.51316603309937       5.08031805813163
F         2.99258006164942      -1.19825201992349       6.10113790244890
F         1.32384431124984      -0.81699861518380       4.68341283607621
F         1.71095091012936      -1.50254585996729       9.52073692972101
F         0.16256703706729      -3.13837865551455       9.46591008951755
F        -1.63573518585812      -0.26170815663434       7.04603631373154
F        -2.13665881942816      -2.43196853172161       7.20224587690724
F         2.99498864379196      -2.67688153173465       3.77961165185999
F         1.07164537294004      -3.65923425880793       4.33132530993244
F         2.87887566820332      -3.89789933668513       5.64524032652418
F        -0.33501682676680      -0.90277954347051      11.03790238775162
F        -0.37401557017439       0.39822780090335       9.22278282373472
F        -1.84720396372610      -1.30297982727933       9.45469801485789
F        -1.08990758648737      -0.40568804359942       4.45883201424584
F        -3.00767298391952      -1.43543142870666       4.93514411407347
F        -1.21020987334459      -2.66123369945286       4.44881691441866
