32
C8H16F3NO3S optimized with ADF in AMS.
N         1.12448004150424       0.16967212932021      -0.19634752212675
C         0.33191390215463       1.45209139508104      -0.41948052125168
C         0.24749289213386      -1.02319887572673      -0.50263142131032
C        -0.96811712547990       1.47540597510309       0.36194864160142
C        -1.03769468410679      -1.03291382918268       0.30896622878440
C        -1.83626192808638       0.25077316821267       0.08360127619880
C         1.65430561334411       0.10990675566803       1.20895872359427
C         2.30072090977301       0.17618245018849      -1.12791439098459
H         0.14868197145950       1.49660761011659      -1.50463597101961
H         0.98183574351691       2.28093148552746      -0.09989629863903
H         0.85728037727327      -1.92278739565451      -0.32742850377089
H         0.01906478120044      -0.95699847505676      -1.57882784687940
H        -1.48973166699690       2.40261493131442       0.07561740375586
H        -0.75303024677138       1.57811432913251       1.43838628452399
H        -0.81168276405227      -1.16649763695986       1.38003267041426
H        -1.61787326545031      -1.91768728706523      -0.00003215137745
H        -2.73319946886220       0.25731367017382       0.72247000560865
H        -2.18529889398261       0.27879345771752      -0.96553631091005
H         0.83321091467077       0.23460824992918       1.91910324750213
H         2.13425510299526      -0.86802904937933       1.34733203076168
H         2.37919703553068       0.92721553338850       1.32409995621550
H         1.92835987287177       0.24493172392821      -2.15777394558826
H         2.92661570558151       1.04530079252439      -0.86628249563864
H         2.85775270165234      -0.75973980716791      -0.98561484628307
S         3.12130400874258       3.65283421741546       0.97740033223353
O         1.72605357476342       3.39671539979688       1.41136935108308
O         3.76413006163060       2.45580668541078       0.37406220407721
O         3.94928962792654       4.44233347685724       1.88264522965499
C         2.87567564406089       4.76972320728684      -0.51059810099286
F         2.13681517327483       5.86336931715203      -0.19522366206656
F         2.20716580403962       4.10142638225801      -1.51198618571126
F         4.05777684728798       5.19010616188962      -1.02175881355937
