59
C17H21F18N2P optimized with DFTB in AMS.
N        -0.12386379306647      -1.34033615393915       2.11129300376421
N         1.79097945437711      -1.46389230769072       1.13622827116839
C        -1.21092645118580      -0.87626130680688       2.97061360623676
C         3.15777696605115      -1.13702460635013       0.74272734046804
C        -2.14814515156316       0.05984440624580       2.20381084567279
C         3.16456286642966      -0.29520588095982      -0.53595973963725
C         1.06539959284439      -0.75759790454860       1.99911029453268
C        -0.16712051087721      -2.43198291234933       1.28737084317157
C         1.04223511231003      -2.51076673295786       0.67035547519926
C        -1.46397330333757       1.36753330273309       1.79451076927534
C         2.50777345800617       1.07403663575653      -0.33526838023751
C        -2.43619821642845       2.29593683719832       1.07091411004711
C         2.56610416459527       1.90769199184429      -1.61304496494128
H        -1.75349065365601      -1.75784902508061       3.32006883195466
H        -0.76599907646631      -0.36520106024092       3.82631781569245
H         3.61790446782728      -0.59221678089229       1.57091524288106
H         3.69409519340725      -2.07612826456628       0.58686011424930
H        -2.99316151564090       0.28075804429549       2.86190709764559
H        -2.53328629174379      -0.45789370976518       1.31908286005535
H         2.65231894635117      -0.84371760927992      -1.33293893727053
H         4.20824197157548      -0.16186410325875      -0.83440500274439
H         1.39875290984418       0.11411307429112       2.53065698213372
H        -1.03677378596093      -3.06150089177379       1.21593177364050
H         1.42756657005199      -3.22031942871374      -0.04073087070112
H        -1.07675928838236       1.86778146031189       2.68600181993662
H        -0.61581833166980       1.14619893473153       1.13695870455120
H         1.46188911620086       0.93681823218222      -0.03995389224641
H         3.01710419881416       1.60599543690697       0.47333778472987
H        -3.27425723698624       2.55082242465261       1.72026241037066
H        -2.82559858375434       1.81993728516293       0.16954156388699
H        -1.92511536594986       3.21539630132857       0.78661931248536
H         2.04522574404959       1.40071404109610      -2.42652167553963
H         3.60097108685247       2.07553898871188      -1.91293795958644
H         2.09189934180399       2.87407914967831      -1.44427257339242
P         1.87294865572174       1.49920157061921       5.31980325481318
F         2.10454542772259       3.07642181446008       4.83444459336149
F         0.75992709664309       1.29444244159849       4.01873620524913
F         2.95548505216625       1.61757835347354       6.58522220882557
C         3.37266193704968       1.13104055160352       4.07926605063399
C         0.46390792779496       2.20539607291115       6.48764767559767
C         1.47140959099734      -0.43539810863865       5.72903953201519
C         4.75632853110784       1.76902711467488       4.38908286863486
C        -0.93091143893296       2.47532759345365       5.86038612355996
C         2.29761738347053      -1.19748387608771       6.79269142571737
F         3.01709384800282       1.57938213788228       2.84864966460180
F         3.64222249359331      -0.18518858168754       3.90936426598203
F         0.88574318872505       3.38404642364709       6.97051646644377
F         0.28165417091948       1.40097253307999       7.54932924267413
F         1.56654801699691      -1.17000189275698       4.58565118785303
F         0.17238673684387      -0.53707595452887       6.08119567909692
F         5.54481284082106       1.62562854876821       3.31340406292016
F         5.34164824616980       1.14219375986690       5.40246941693852
F         4.68760008135778       3.06050985147448       4.66833583983209
F        -1.76111154333576       2.99540072203784       6.76166970110249
F        -0.83889254246531       3.33110329774332       4.84501400987266
F        -1.49742069545171       1.35522421450396       5.39405360600210
F         1.94389023386049      -2.48611350957860       6.82442139566319
F         2.11557665500111      -0.69057359220477       8.00367866845268
F         3.59504465189710      -1.14027192406910       6.49810508570348
