57
C15H32F2N2O4S2 optimized with DFTB in AMS.
N        -0.65476308283143       0.05745797426235       0.47061150288764
C        -0.92999945792568       0.64129665184945       1.83067295768613
C        -1.58920543431459       0.68322518989903      -0.52150460256991
C         0.74302031431332       0.44641636158404       0.05418348278123
C        -0.81011752901309      -1.43905475021312       0.52936046688131
C        -2.38556522373160       0.50684301035957       2.25784404575845
C        -3.05731090460948       0.52292801114859      -0.14475894354831
C        -3.32705961880277       1.12868600197875       1.23147928935663
C         1.86528543553614      -0.19849226647280       0.86379082203891
C        -0.49890080862704      -2.18070789507990      -0.76571368243285
C         3.20032176116165       0.46738844694884       0.51270156439394
C        -0.67778532297956      -3.68422993469754      -0.51413194859841
C         4.34507699166715      -0.18889195189376       1.29156418044683
C        -0.25853101245823      -4.50717433570118      -1.73441500414214
C         5.68589822168165       0.46163724937514       0.96001092137558
C        -0.35659022556650      -6.00297860280327      -1.43854910274199
H        -0.64645602644284       1.69678569908558       1.78518989397137
H        -0.29013963888954       0.12633511326415       2.54716680881495
H        -1.38923466464627       0.23578030998943      -1.49681207613991
H        -1.33418524036831       1.74606907943244      -0.56800418960602
H         0.79595613140710       1.53557392263581       0.14110723638191
H         0.84724110018974       0.18543012748633      -1.00177382071987
H        -1.83551932610185      -1.64871896153866       0.83534880336932
H        -0.14289127213718      -1.78596824560373       1.32393983619166
H        -2.48519506907722       1.01698953838456       3.21898882359224
H        -2.63814424736075      -0.54273904280608       2.42078655322235
H        -3.34542516537155      -0.53109767873545      -0.15910367066853
H        -3.64834788003389       1.03983406647086      -0.90550178088112
H        -3.17238970199334       2.21207782923541       1.19042807764189
H        -4.36422930663230       0.94324554762253       1.51921314938551
H         1.68213386076017      -0.09619128877665       1.93539897003406
H         1.93283843092263      -1.26362859507449       0.63708502270575
H        -1.16582992495382      -1.86326041688797      -1.57310140457155
H         0.53078733830359      -1.99300345504529      -1.08022064745670
H         3.15316888322720       1.53618231777229       0.75143083120865
H         3.38284654006848       0.37257275092341      -0.56352259684701
H        -0.06875360569869      -3.97762917150873       0.34454501777715
H        -1.72489994063920      -3.88925361315086      -0.26855376877000
H         4.38208759874424      -1.25403801294371       1.04883988452475
H         4.15022454851509      -0.09847481570125       2.36489377976618
H         0.77349472575998      -4.25750876408379      -2.00284785568626
H        -0.89784823692594      -4.25499289227766      -2.58793663854121
H         6.48084308906809      -0.01988901228799       1.52913445186513
H         5.90933489423408       0.35980521760508      -0.10312251186506
H         5.67207132634247       1.52340781160301       1.21184478249368
H        -0.04721313960587      -6.57719604025153      -2.31192827722001
H         0.28989638213875      -6.26533275121853      -0.60056226293437
H        -1.38188811334359      -6.27636796786212      -1.18632745678586
N         1.00419188506065      -2.42559561011739       2.91296054665890
S        -0.14862922230234      -2.69548515933042       3.97704253685155
S         2.07123871390273      -3.58923382201626       2.67816937979977
F         0.57677855101381      -2.49869964023188       5.39972321862830
F         1.19633917342348      -4.76045304349656       1.96771946189085
O        -1.04200171331182      -1.57208745440224       3.88164616198796
O        -0.70859526735429      -4.00408162554187       4.01737265250006
O         2.62569265243953      -4.20022486663284       3.83564956007965
O         2.93972729746886      -3.13602115073113       1.63503434597687
