54
C14H26F6N2O4S2 optimized with DFTB in AMS.
N        -0.75965001594108      -1.58352837959293      -0.50796753027132
C        -0.01654158479865      -2.00240887374193      -1.74253960558607
C        -0.79705515081025      -2.85488403465519       0.29115696910884
C         0.00041720396973      -0.54846907080692       0.26864530111682
C        -2.13560769697370      -1.11031764404770      -0.87614143780188
C         1.08966857896286      -2.92897958402875      -1.25003359147794
C         0.56289947098094      -3.51165515646320       0.07030033621748
C         0.08322698528888       0.82529265942394      -0.39442670600670
C        -3.03547375242602      -0.82417416751272       0.32128131642042
C         1.04769096083975       1.71641285355606       0.39901445062387
C        -4.45901251853374      -0.55082335435041      -0.18161664233695
C         1.13713853343276       3.11126949683871      -0.21586321466488
C        -5.39796727326179      -0.22092195403012       0.97562202146093
H         0.34534674143639      -1.12621848053007      -2.27840025186095
H        -0.72007733790924      -2.55291090263402      -2.37136220715819
H        -1.60335683477428      -3.47022420210655      -0.10870841423578
H        -0.99948162565694      -2.62782655540556       1.33744506659015
H        -0.48597831272135      -0.45724864775294       1.24284974277289
H         1.00653574685904      -0.94325028255613       0.42591078557661
H        -2.01811582906245      -0.22249724144269      -1.50091179741392
H        -2.58167091951058      -1.89657752753437      -1.48385909878646
H         1.27371124124566      -3.70651539151382      -1.99240031951183
H         2.02184167192331      -2.38195289461125      -1.09125593853315
H         1.24479294661989      -3.28879777618422       0.89388150998143
H         0.44601211749923      -4.59383645129658       0.01024322329398
H         0.43921761953740       0.73779748179482      -1.42415108771853
H        -0.90217382390205       1.29748423929772      -0.41499393525088
H        -3.05893115412648      -1.69218771890846       0.98423239747935
H        -2.67034094352320       0.03644737490170       0.89031529315215
H         2.04128779720332       1.25645845345432       0.41090341219943
H         0.70068242719630       1.79367225863396       1.43459163050770
H        -4.44207971454282       0.28306698627933      -0.89149569780805
H        -4.82198585696944      -1.43679253882211      -0.71084272969481
H         0.15850708412434       3.59231184006008      -0.21641676009113
H         1.49773707289262       3.05371241917044      -1.24339476746737
H         1.82705503514806       3.72602485800530       0.36147762260690
H        -5.11706303217932       0.72470878113553       1.44186826046776
H        -5.36496474028286      -1.00708397570996       1.73054026126657
H        -6.42009297039092      -0.13580410264596       0.60744768802710
N        -2.77107621345726      -5.84447369107492      -1.44305159753612
S        -2.18599068252254      -6.71934318071251      -2.66946572837662
S        -3.38585435659501      -4.43051049725672      -1.82960872990281
C        -0.39063124514331      -6.19236539347735      -2.80005070157653
C        -5.02284806056358      -4.66249282342422      -2.73450523216011
O        -2.08911917327081      -8.07765596453744      -2.21979219681443
O        -2.76575255125870      -6.43874321818692      -3.95541450547104
O        -2.58372227675664      -3.60837616000032      -2.73135375968071
O        -3.76086139620417      -3.78568163209052      -0.58114529365091
F         0.29830199088281      -7.06290289407345      -3.51435026795526
F         0.14142184968552      -6.13819941911763      -1.57390538648079
F        -0.24347743149552      -4.98829013089723      -3.34509133023074
F        -5.90813476530890      -3.82679783080710      -2.20581147181825
F        -5.46128142015590      -5.89689062814372      -2.59015042844205
F        -4.88995897999922      -4.38192467186725      -4.01398627819720
