32
C6H12F6N2O4S2 optimized with ADF in AMS.
N        -0.03131614052160       0.28373591654496      -0.22979436652990
C        -0.37750228798650      -0.85857763007323       0.67182320635010
C         0.75852000492756       1.30495531116871       0.54489627272065
C        -1.29929880402620       0.90363088239980      -0.75504130234540
C         0.79264881134979      -0.21345377066199      -1.37841206021384
H         0.54938072538262      -1.31230365501600       1.04550868979393
H        -0.97365926909555      -0.47277968858522       1.50760218871569
H        -0.95819255065203      -1.59559167428065       0.10272237889450
H         1.05876447445598       2.10905271274894      -0.13544874253562
H         0.11724917799544       1.72332364424856       1.33016366886175
H         1.64092731555008       0.80635331525777       0.96692310174184
H        -1.04738946169231       1.76863116218091      -1.38171847375606
H        -1.84339761463377       0.13625779445497      -1.32031469615397
H        -1.88403838898723       1.27150379872537       0.09692437314453
H         1.01678925766327       0.63422799157492      -2.03527731023624
H         1.72161338394925      -0.64633435231077      -0.98535164478861
H         0.21788675861723      -0.97291992464938      -1.92325676474700
N        -1.07339152611960       4.00779929713667      -1.04321975275488
S        -0.76964334464952       4.45048873117563       0.47622536861849
S        -0.55901755197454       4.78855061288842      -2.35888259672770
C        -1.65234288250407       6.10410132426170       0.82369429711680
C         1.24123354635871       4.25235613460163      -2.62152245597100
O        -1.49207560423597       3.48334025009596       1.31376681128965
O         0.63787893504586       4.71345360822808       0.77419682918587
O        -0.47880149959599       6.23578992196287      -2.23633631111762
O        -1.22142094730074       4.15157425867080      -3.48944913511143
F        -1.90588717110494       6.16412997332894       2.15526933949946
F        -2.82308485522822       6.17784491189614       0.15551556671115
F        -0.87790369446981       7.14903657016347       0.48894203259003
F         1.60005291299547       4.51456200579368      -3.89708959012887
F         1.37498951620513       2.88741608408034      -2.43205816192889
F         2.10634494258222       4.86099959598799      -1.79244702218742
