22
C8H11NO2 optimized with DFTB in AMS.
N        -1.19030937345521      -0.07313299386457      -0.32224601715957
C        -1.09740535628098       1.11421874327584       0.48025764035299
C        -0.23642757201097      -1.05002608424864      -0.22498660799009
C        -2.51844000650577      -0.42247144083864      -0.81877061805627
C         0.32287553960628       1.46568080630914       0.78047940207285
C         0.99356422815454      -0.79290691152504       0.27353850330848
C         1.28862486118740       0.53518969733286       0.72842892283666
H        -1.64797144466069       1.93019608093162      -0.00930133308996
H        -0.50390011568693      -2.01025173409001      -0.65267013149799
H        -3.03121375939836       0.48745001271254      -1.12854249894571
H        -2.41535931179931      -1.09163268000314      -1.67336039355339
H        -3.10627345906719      -0.91659018144425      -0.03981623265893
H         0.50536556792826       2.47845306610893       1.11630768701808
H         1.75368685724676      -1.56137694027709       0.29266596615722
H         2.31062671739247       0.78166888664679       0.99453643314286
C        -3.57751334308831       0.97918546701601       3.28665314028930
C        -3.05875502009004       1.23966948570071       1.89053939566804
O        -1.78400631833499       0.88738165032987       1.78066356833551
O        -3.72195140065131       1.70811564602867       1.00132998317268
H        -3.42384865864564      -0.06793335037286       3.53994407972300
H        -3.01735583882705       1.58998138422247       3.99310079651665
H        -4.63438109961293       1.22853155824877       3.33888927365762
