43
C11H21F2N3O4S2 optimized with ForceField in AMS.
N        -1.27532925731206       1.29478589393348      -0.19921149184174
N        -2.67944972268776      -0.39624489026273       0.14195918584957
C         1.10829441094313       1.94381082158078      -0.18643031553714
C         1.60574305081502       0.50327713856982      -0.37151290177199
C        -0.27043955659293       2.15303845366717      -0.82518112554165
C         3.03594034326229       0.33453173587035       0.15060835718892
C         3.48581700927882      -1.12700466412313       0.03999268115159
C        -1.82218781500955       0.17987019935801      -0.72277849827964
C        -1.80043507492341       1.42589120017405       1.03597927295054
C        -2.67386100979094       0.37775235479085       1.24657850378781
C        -3.39474402639855      -1.65651987461094      -0.04334300924716
C         4.88853102205609      -1.31815801922036       0.60722907491025
C        -4.86999480195285      -1.39554631676516      -0.31801639173953
H         1.82576660719549       2.64664845711518      -0.66348067893183
H         1.05696028638319       2.18734292308231       0.89717716926263
H         1.57749544225922       0.23567895152487      -1.45089674034813
H         0.93394045951558      -0.18894313682790       0.18160024234383
H        -0.57416033851627       3.21635520183082      -0.71425814915669
H        -0.20892193560471       1.93622804661257      -1.91477441480256
H         3.08252743778455       0.65646609721289       1.21336705226441
H         3.72294430556510       0.97805534865979      -0.44183577609000
H         3.48152012158979      -1.43971232658912      -1.02692138963908
H         2.78207484255267      -1.78086583927971       0.60004681516615
H        -1.58140117752190      -0.21736042973816      -1.70083663939453
H        -1.55385346386077       2.21251658217185       1.73714632349232
H        -3.24222667244142       0.18233532585764       2.14641543438520
H        -2.96218016440549      -2.21732741719839      -0.90074009559207
H        -3.28556994812639      -2.28582754602961       0.86647823954155
H         4.90767226607683      -1.04822599195811       1.68453306538803
H         5.61706737660929      -0.68630792275871       0.05646959259300
H         5.18956671737535      -2.38182367575736       0.50263661376748
H        -5.33081325748192      -0.85246482311252       0.53354657881773
H        -5.39973143108037      -2.36142654051990      -0.45696971318207
H        -4.98147157036432      -0.78976453322028      -1.24217917573635
N         1.09162297154398       2.58151004150442       3.88171815337113
S         0.89682300460860       1.03355099018616       4.37268797713218
S         0.67431308029549       3.83606992743298       4.84503538472792
F        -0.73362753915124       0.65582923519164       4.36517587795275
F         1.79514568685397       3.97750206673102       6.08042909810004
O         1.62748171486890       0.11247469393450       3.43813166823142
O         1.42950307615298       0.86595971589544       5.76847660468036
O        -0.68306686549969       3.59651038371438       5.44494062873781
O         0.65575943403619       5.10374376586915       4.03923583023756
