73
C21H32F18NP optimized with ADF in AMS.
N         1.40909635110858      -0.19565203096572      -0.12247950173648
C         1.48407725683797       0.02835997443548       1.37952460163267
C        -0.00616346600079      -0.58857492812637      -0.49124999359880
C         1.72007686474534       1.11301759336746      -0.83334977028743
C         2.40633876631443      -1.27642246301813      -0.50954921410731
C         1.00452362773162      -1.16893404857840       2.18189247069492
C        -0.50925334046634      -1.79881032653087       0.27954923090302
C        -0.41444596878995      -1.57344332191885       1.78918594583976
C         3.13725401838093       1.62743487646992      -0.66895161778080
C         2.56645508344824      -1.53285848752111      -1.99659638365850
C         3.30554044332860       2.95499219582275      -1.41322146733503
C         3.67658416073565      -2.57218101276658      -2.18739790028472
C         4.72597442900404       3.50303439701058      -1.27434538348649
C         3.98482131521236      -2.86528062603235      -3.65297983285214
C         4.92883133978859       4.81329172653687      -2.02801872822759
C         5.14317572721508      -3.85098501362705      -3.79601725470619
H         0.85322372028009       0.91065613657673       1.57978361405510
H         2.52524227852995       0.27138344729857       1.61206825380009
H        -0.01786576895033      -0.75416930869762      -1.57725501575591
H        -0.62841407856775       0.29373419979681      -0.26844077130389
H         0.99096913879213       1.83978707537532      -0.43870357690851
H         1.48357809558943       0.94513091635737      -1.89499014923970
H         2.08824014399364      -2.19163085193064       0.00009920265294
H         3.36234157615267      -0.97656886214450      -0.06419925539187
H         1.05475750711069      -0.87921337575545       3.24404024872879
H         1.70619565078651      -2.01011001186522       2.07158233420840
H         0.05099745876641      -2.70137961758806      -0.01422879870436
H        -1.55448974610997      -1.96945696262075      -0.02728714302512
H        -1.11840007466270      -0.77137014849000       2.07866719035046
H        -0.72061066921249      -2.48120145196073       2.33100157211065
H         3.38578079564032       1.77851916859158       0.39219561766265
H         3.86916078849260       0.90385551296090      -1.05828512586436
H         1.62837440646185      -1.89823099468767      -2.45107271568453
H         2.85738758445018      -0.61143718455306      -2.52789582926562
H         2.58316889466251       3.69814928210400      -1.02444524302273
H         3.06732774023027       2.81430620514458      -2.48474285429224
H         4.59000361271571      -2.20736670229738      -1.69367701427793
H         3.39987609142879      -3.50978223308031      -1.67186632689586
H         5.44124667950608       2.74317032874487      -1.63497817755332
H         4.95319621034282       3.64581917740413      -0.20488688860508
H         4.24039982232838      -1.91820895343760      -4.16264987404262
H         3.08256204478132      -3.26086670910198      -4.15516098343953
H         5.96121239273487       5.17652251567838      -1.91438307898887
H         4.73237244387295       4.68878081569988      -3.10520532340024
H         4.25339237793982       5.59803739472570      -1.64996759311652
H         5.37782259659308      -4.04829764496372      -4.85281321389291
H         6.04862342368740      -3.45834252590253      -3.30870168004745
H         4.90053860360304      -4.81249026231097      -3.31595984982005
P         6.66563703488578      -0.96751391687049       1.17884865100758
F         7.70107737690758      -0.06222672691975       0.24018846642388
F         5.34865721809109      -0.61819467274013       0.16494625567518
F         7.87885591236330      -1.38174814907176       2.21526572190662
C         7.13903881356982      -2.41912105806106      -0.08096220017619
C         6.43704341024964       0.85246322099436       2.08205271498247
C         5.36817902305872      -1.95725357676594       2.40937489032344
C         8.51380087013080      -3.12531095398031       0.10753331099110
C         5.49002681740796       1.32740177999440       3.22874302256091
C         4.78275501038878      -3.39820196802588       2.27500343642432
F         7.15748798172371      -1.90683978197909      -1.36416612341693
F         6.20831398436668      -3.43858816558317      -0.11434188674020
F         6.12864923388759       1.74765246140522       1.06557879804056
F         7.68694593403960       1.18302311100852       2.55086682466001
F         4.20850854969700      -1.17630454234019       2.47432939729125
F         5.91060254113091      -1.96196364757160       3.67029671808311
F         8.71550594056220      -3.99570833415918      -0.92740829546977
F         8.53766669228576      -3.84611098109072       1.25424442222163
F         9.53881190531508      -2.25041554347921       0.11360997496403
F         5.82944565341318       2.59880108377462       3.58431508333264
F         4.18157025180917       1.38808094097227       2.82287706096953
F         5.56134529141614       0.56377109933128       4.33383344858321
F         4.00428995021679      -3.54086505169084       1.16424845783447
F         3.95811468744064      -3.63616547321024       3.34230214381797
F         5.73607290687742      -4.34556289996937       2.28644278837039
