32
C8H16F3NO3S optimized with ForceField in AMS.
N         0.82872606778220      -0.00125193313642      -0.04939079200244
C         0.06180696058498       1.22307128182091      -0.42197058443395
C         0.07327389426620      -1.23661120691054      -0.40897700158661
C        -1.36755143639518       1.24686332230612       0.14707313466076
C        -1.35642774993542      -1.26684006353158       0.15956359653564
C        -2.13241382053748      -0.01519421916004      -0.24450918812106
C         1.17459167878746       0.00805612498702       1.39545011664511
C         2.10010899972243       0.00184169308286      -0.81401897630497
H        -0.01793131858900       1.30356014741297      -1.53103388880213
H         0.59370940005753       2.13785010317743      -0.07369367054698
H         0.61406486794373      -2.14264801973100      -0.05194806895530
H        -0.00719655014097      -1.32965602194156      -1.51697622661899
H        -1.90303475382968       2.13184809470084      -0.26014071826943
H        -1.35079700804563       1.35741438008529       1.25145403226582
H        -1.33918073489507      -1.36647838810587       1.26494436453405
H        -1.88433412005508      -2.16000634852130      -0.23964586855725
H        -3.12388381779464      -0.01684779452137       0.25746753165577
H        -2.30345766003679      -0.02107631028273      -1.34363822670101
H         0.27591989718089       0.00935123504446       2.04315056931167
H         1.77536561909046      -0.88855906821163       1.66786356386377
H         1.77247664116639       0.90981612622231       1.65677126019559
H         1.91350933453422      -0.03813673310507      -1.91075068500083
H         2.68708312574528       0.92553587776183      -0.61080420924565
H         2.73235614722771      -0.87567688820258      -0.54829553066088
S         6.37961629301104       0.66219419375566       0.31803926969510
O         7.10303969736434       1.41051007573488       1.44692782857974
O         6.29524837279939       1.71307402333589      -0.79861112802013
O         4.93474082030369       0.57860790311887       0.82943895098300
C         7.12400067729038      -0.92165928683787      -0.16130360997223
F         7.07259732778224      -1.79662412137114       0.90682053478096
F         8.44084988558054      -0.71945081589100      -0.52776417052242
F         6.42598889803386      -1.45546560418563      -1.22768342828472
