32
C8H15F6N2P optimized with ADF in AMS.
N        -0.60075005605519      -0.43159356516845       0.49930173790637
N         1.55876939725136      -0.27839520657197       0.36202201661063
C        -1.97887460317940      -0.24467058094930       0.98902813381885
C        -2.90448171318466       0.29368111224335      -0.09730627703877
C         0.49266458608558       0.05308175525065       1.10001560960892
C        -0.22481149315306      -1.08134201951443      -0.65932515968342
C         2.93972550852913       0.16113183873869       0.62969296740285
C         1.13336012707557      -0.98085979657693      -0.74748474801572
C        -2.45264278839195       1.63753944951116      -0.65827540904694
C         3.37206231843969       1.26408657373827      -0.32232574339703
H        -1.90466186564244       0.47559085537278       1.81642826211954
H        -2.32700638566679      -1.21541170089456       1.37737189104352
H        -3.01733272811499      -0.45591373343265      -0.90208498198714
H        -3.90151351707918       0.38558446641837       0.36876866806833
H         0.50810456804536       0.67075209338411       1.99200172799541
H        -0.94530455121809      -1.55035147617419      -1.31669764799952
H         2.95050869262875       0.52122323182542       1.66723623042566
H         3.57733310680589      -0.73389491039335       0.55645033508159
H         1.82491297682519      -1.34740033590119      -1.49615385268384
H        -1.46460358172560       1.56457770889451      -1.13673178794671
H        -2.36298985059410       2.38945210604361       0.13928206433085
H        -3.16936593092167       2.00293063833760      -1.40895250967447
H         3.35737430775296       0.92149822433589      -1.36798732964123
H         4.40036407156287       1.56502831866988      -0.07345013288719
H         2.71107101028758       2.13452578223167      -0.21103799020894
P         0.41233555899642       3.53557436104539       1.70686471581676
F         1.58017264787893       4.51312704169337       1.10691445573411
F         0.45640099567650       2.63385245875525       0.28739944243318
F         1.59561862596618       2.50575058602125       2.33124366924063
F        -0.74404161547637       2.45669781403214       2.29941893158564
F         0.37470841851248       4.35240121319334       3.11841121800709
F        -0.78079447331696       4.45987463734031       1.07378877468101
