54
C16H29F3N2O3S optimized with DFTB in AMS.
N         2.96702525222262       0.74302498474218      -0.46248546979091
N         2.76609972657116      -1.35054432318585       0.00927497532960
C         1.48897833501034       2.66406399924533      -0.89820915837333
C         2.85086598080929       2.19550971476032      -0.37204745658002
C         1.01262161040164      -2.65667559942566       1.15684241046109
C         2.48760870135780      -2.57958775629788       0.74909097390909
C         0.33035562318257       2.18854599628754      -0.01915398226313
C         0.09490845558326      -2.89429457023877      -0.04694062463596
C        -1.01917833244645       2.49823154249551      -0.67414136109704
C        -1.36237473898792      -2.56810339025364       0.29306000284090
C         2.60873286649218      -0.11536698706101       0.49060799151009
C         3.32982981942401       0.04838960256042      -1.58085776232071
C         3.20087969968284      -1.27217760182836      -1.28452741131543
C        -2.17003616438122       1.88141452558881       0.12527596589498
C        -2.23711967073611      -2.60008412695045      -0.96341151447420
C        -3.50690033389954       2.08777107259139      -0.58423010203689
C        -3.69267442403975      -2.27337263590143      -0.63698605630096
H         1.51064360660500       3.75715929830960      -0.93331286331274
H         1.36086411204889       2.29205563240413      -1.91692754032384
H         0.73705255852206      -1.72430946167516       1.65907678632865
H         0.90741443304284      -3.46964841155236       1.88136951752729
H         3.65798930934270       2.62690653282304      -0.96932482292043
H         2.98873579951443       2.47913529971375       0.67571776205008
H         3.13023088575233      -2.59024359594283       1.63542391023704
H         2.75877782976025      -3.41939788143063       0.10480399497143
H         0.39397613625592       2.66142266742257       0.96836059985167
H         0.40844060095853       1.10575851398655       0.11978390121716
H         0.18301005069121      -3.93460357989810      -0.37576366059608
H         0.41688883323270      -2.25457712587425      -0.87128855328671
H        -1.15539697822566       3.58244017579056      -0.74952260918644
H        -1.02684039366257       2.08469757053002      -1.68632894998240
H        -1.41085799130460      -1.56633918006599       0.73572246124315
H        -1.73961648459857      -3.28016792860920       1.03629484937148
H         2.29236832656758       0.14238414075882       1.48591996981156
H         3.61146581920327       0.54040854153872      -2.49472073546038
H         3.36224261262253      -2.14652606814508      -1.88934667817711
H        -1.98894086376627       0.80745867178086       0.24459806228296
H        -2.20933161500765       2.32683489128540       1.12631740163217
H        -2.17883996397725      -3.59105664934323      -1.42576042279330
H        -1.85415004977314      -1.86983007917111      -1.68163970235828
H        -3.71715225832875       3.15161941664799      -0.70520409653474
H        -3.48529439416755       1.62355709123109      -1.57067779966638
H        -4.31337534774633       1.63730420316260      -0.00439039622173
H        -4.29138958430406      -2.29341801574690      -1.54768386383992
H        -3.77037971251644      -1.27945810425036      -0.19353946313911
H        -4.10372226902731      -2.99995608482290       0.06632763650020
S         0.37141434549123       0.04607682285881      -3.17310663025144
O         0.41377788494647      -0.31680770716256      -1.75895995510285
O         1.55823771620885       0.76107817159182      -3.61800573596533
O        -0.88674445983515       0.58210207224478      -3.62468582688047
C         0.53378691967743      -1.60386015616877      -4.00445521208718
F        -0.43540905037171      -2.43369085195849      -3.62557374763642
F         1.70099649386915      -2.16502442576200      -3.64354453159924
F         0.51779134625289      -1.51567203202961      -5.32520945655950
