36
C10H19BF4N2 optimized with DFTB in AMS.
N         0.59188351363181      -1.37473035384491       0.70226197629737
N        -1.53637712934452      -1.15212083961130       0.45786517615096
C         1.92652588485784      -1.34214457687386       1.29516702049745
C         2.94580545026504      -0.75749318662064       0.32165831844098
C        -2.91321563693519      -0.72818759867936       0.66498802550187
C        -0.50120196590238      -0.85608858212031       1.25050515313224
C         2.57869215114752       0.66135610876601      -0.12245893090751
C         0.25875490577358      -2.01822382280285      -0.45526424841270
C        -1.08259490386538      -1.87312135085116      -0.61691498091296
C        -3.24122159293416       0.47511106182326      -0.22491267275359
C         3.62726050790932       1.22995005234597      -1.07699619065508
C        -2.39287679469128       1.69660993231525       0.12094015220340
H         1.86376039650358      -0.74751989950246       2.21094161335327
H         2.19864449573364      -2.37396956206392       1.54430624487389
H         3.03031752289744      -1.41773755079299      -0.54514303997611
H         3.91436040204939      -0.74962220528760       0.82899602955291
H        -3.03590479576290      -0.47586230224944       1.72169920725098
H        -3.56650546538894      -1.56986602137240       0.42006264857222
H        -0.55134654724963      -0.30842046350721       2.17558017601347
H         1.60278612306648       0.64727020365049      -0.62185338904315
H         2.49244253258741       1.31095130187759       0.75635355907665
H         0.99086570618741      -2.54323409859408      -1.04493873049896
H        -1.74794132785190      -2.23377534035593      -1.38115410923793
H        -3.08376147457991       0.19969726000659      -1.27170382877303
H        -4.30048411439505       0.71110131481623      -0.09129262130261
H         3.71133501269681       0.60345186242242      -1.96558173744842
H         4.60198189470506       1.27356022056854      -0.58992935840292
H         3.34649408526601       2.23725073571081      -1.38554691585520
H        -1.33378634847147       1.48363638472437      -0.02906958939733
H        -2.54632697394454       1.98835306975257       1.16060521186279
H        -2.67177710157616       2.53199587365941      -0.52004963584838
B         2.15252325023849      -4.49830667039690       0.42415334377642
F         2.27635198109833      -5.80632664303653       0.04799195674610
F         2.60480372257877      -3.62288156151073      -0.61109796879897
F         2.87887190476189      -4.19583298876158       1.58519261978053
F         0.78959077353762      -4.16226301280336       0.66471120534134
