32
C8H15F6N2P optimized with ForceField in AMS.
H         0.49339184042597      -0.47240243667966      -4.92217661658458
H        -1.17005037592756      -0.67552828172957      -4.24578324785571
H         0.00082777894702      -2.04897816587964      -4.18053682141013
C        -0.10050802532217      -0.94548093282881      -4.11246893202041
H         2.50412933408157      -0.09139523014800      -0.37613474824198
H         2.42886864860524      -1.18386143606883      -2.81547627365061
H        -1.34738795284079       0.48059294947034      -1.97903051357540
N         0.38440008670645      -0.48818330797352      -2.81623935905270
C        -0.31083196911750       0.18385962443527      -1.87824508398646
N         0.44742489125754       0.42429301014376      -0.79069075565649
C         1.65803648991347      -0.11046557672835      -1.05058921389703
C         1.61931480683075      -0.67437244399817      -2.30975442956247
C         0.03694965836931       1.11324019683614       0.43008601329198
H         0.82732466254979       1.83584421174282       0.72984807783708
H        -0.89810943599857       1.68574320012452       0.24082562927051
C        -0.20588600705123       0.09871604584930       1.54997776565741
H         0.73356782482585      -0.46317591673258       1.74639031021652
H        -0.98700646744818      -0.62143142819308       1.22043888152956
C        -0.66236447894817       0.79265954831188       2.83701176272122
H         0.12921528382638       1.49068340070652       3.18670848865369
H        -1.58882517114914       1.37605870589502       2.64329450120273
C        -0.94543387451360      -0.22422891112319       3.93781411708632
H        -0.03358404329920      -0.81882884119289       4.15753546071806
H        -1.76311633543181      -0.91030859255284       3.63019980676418
H        -1.25715170938443       0.30908003419627       4.86002310545480
P         1.03715329097477      -1.11509556338902       7.58917278261287
F         1.60961964917467      -0.22703176204852       6.23529015591813
F         1.36994511472833      -2.55710730104159       6.71769857687390
F         2.60536539685623      -1.14430168065210       8.28844548464244
F         0.52365950185973      -1.97462546715905       8.98431881117521
F         0.68502951675275       0.39626263919173       8.32469394334878
F        -0.57853029645347      -1.18817148278415       7.01319454861862
