52
C14H18F18NP optimized with DFTB in AMS.
N        -0.70951230314623       1.44534038956310      -0.11016294764682
C        -1.79488984425399       1.28480227171753      -1.14173893015876
C        -0.02027450371398       0.13309931616302       0.09966892636125
C        -2.78199127015149       0.17588144637143      -0.81074612120811
C        -0.98644335276503      -0.98553348095361       0.47427347396204
C         0.26529297784028       2.44808505439624      -0.67385043586826
C        -2.06355129894467      -1.15394397245209      -0.59608787604424
C        -1.27761189207079       1.96307010181453       1.16502431344611
C         1.42109208680698       2.80898728260434       0.24448401133992
H        -1.29789934198725       1.07449252167003      -2.09150699848295
H        -2.31145750324021       2.24091598521819      -1.21652763094243
H         0.72397911218338       0.26814931022056       0.88684666317654
H         0.49140950311663      -0.11137120698413      -0.83555671660971
H        -3.47091937087086       0.09655250908723      -1.65534979687231
H        -3.37256904581180       0.43352069776041       0.07142411810267
H        -1.44659462932349      -0.78128255635034       1.44470695729534
H        -0.40307327775769      -1.90515710761025       0.56842297675247
H         0.64438278370729       2.02885052506631      -1.60894542592283
H        -0.31103778362106       3.34463303339448      -0.90294594273353
H        -2.77814698844654      -1.91773275315973      -0.28199484169690
H        -1.60116403318937      -1.48172033844164      -1.53264066369580
H        -2.11288430422656       1.34106413611774       1.47277147782375
H        -0.50860528619657       1.94607249153218       1.93358587399569
H        -1.62518372005897       2.98006002291368       1.00261299739450
H         2.04524734721369       3.52317249404296      -0.29219124818757
H         1.07506695011279       3.28601509022546       1.15948418345754
H         2.03280219237920       1.94459997077047       0.49903772856892
P        -3.05585003597489       5.26235511395759      -1.57835178589529
F        -3.39644416891591       3.72102471405060      -2.22026518081144
F        -2.05900522039996       4.45896566289841      -0.41189641252916
F        -4.00693647780669       6.00474998545601      -2.72417246096245
C        -1.53345556993054       5.30576088669572      -2.82921274341779
C        -4.64973989941981       4.93939755956360      -0.46948056435152
C        -2.53931174677743       6.96762415529056      -0.69998274775583
C        -1.50442801658052       4.27909260341766      -3.99292347081603
C        -4.52618357585837       3.95279559546436       0.72145609977471
C        -3.14738063203937       8.32387736461794      -1.15232671875866
F        -0.35585622556373       5.10162436850037      -2.18660743165088
F        -1.47372590485237       6.52574419595390      -3.38107881212243
F        -5.60868617440973       4.43088045542183      -1.26172980665975
F        -5.12986545921286       6.08835882843546       0.03345196337297
F        -1.20239327859317       7.10446581656834      -0.79856208826424
F        -2.81205399930175       6.82832133618383       0.61372810378194
F        -0.52455194269699       4.57417007374782      -4.84773606061829
F        -2.63644657927141       4.21535574422524      -4.67234734640297
F        -1.23334955447431       3.05227590985088      -3.50219424865911
F        -5.70540051860705       3.75314672175978       1.30230558318360
F        -4.08286769458717       2.75028399692894       0.30484263604585
F        -3.67836867036947       4.37608802854674       1.65594104760819
F        -2.76341867644969       9.29565357967957      -0.32109616153043
F        -4.47473255146179       8.29296006710599      -1.15956887591987
F        -2.73048232662877       8.64243182988078      -2.37355655254765
