51
C13H24F6N2O4S2 optimized with DFTB in AMS.
N        -0.02606436452394       0.06990086549283       0.30607750412512
C        -0.76770800705939      -0.58971884590335      -0.81883609641859
C         0.17128351546864      -0.94488450937444       1.39835713827287
C         1.33048977615501       0.46351823985889      -0.22962885104137
C        -0.77069896912177       1.26091471250016       0.84614807169557
C        -2.09966490689750      -1.19380294429705      -0.38529002208202
C        -1.12999662722401      -1.55837112769655       1.89140506139252
C        -1.89990932269822      -2.20494348339372       0.74354617251123
C         2.20785499997996       1.23267174289794       0.75415185561238
C        -0.92589922164839       2.41387358711099      -0.13242366603862
C         3.63232872335022       1.36441150729893       0.20418069994877
C         4.51726900404818       2.09282761509801       1.21426986034882
H        -0.11450408604845      -1.37725669518453      -1.20536364115063
H        -0.91816047379468       0.15213582701485      -1.60530943428185
H         0.67240263487154      -0.44772534345636       2.22541000879190
H         0.82836667923299      -1.72066051325189       0.99685520943079
H         1.16040369150546       1.05467257881691      -1.13313627072706
H         1.82483613641095      -0.46748860093141      -0.52102610400440
H        -1.75578695304142       0.91392533567068       1.15847462338978
H        -0.23805934297054       1.60251002867965       1.73366085851500
H        -2.53097411892273      -1.68977906936446      -1.25903311196318
H        -2.79475333088007      -0.40991199516648      -0.07405401293202
H        -1.74045441257355      -0.80451578073091       2.39390050083619
H        -0.86297520272852      -2.31159162310891       2.63663943778085
H        -2.87160905322901      -2.55759586242993       1.09630125988405
H        -1.34115561669774      -3.06703074125006       0.36474294291481
H         2.25693306481922       0.71505064206554       1.71321458823301
H         1.79795418717294       2.22810876346652       0.93612120024749
H        -1.52941316863531       3.17461685594630       0.36257049079964
H         0.03224555009900       2.86096032505718      -0.38947267164918
H        -1.43692267498621       2.11595925160088      -1.04705251196892
H         3.61547416114638       1.91333691500910      -0.74378075184016
H         4.04134230262480       0.36712872872903       0.00933186692308
H         4.51884094862014       1.56333777341086       2.16731285191323
H         4.14867046854671       3.10500226191386       1.38218771184135
H         5.53960129641707       2.14852955933451       0.84117582452127
N         2.51674511646189       1.15428248284095       4.00924813481898
S         2.94118013280265      -0.07300314384959       4.96116893827270
S         1.00685152430247       1.67171978322942       4.10524724619292
C         2.53145631477197      -1.62816742196816       3.98779191449126
C         0.69057905488977       2.47264719010207       5.77783317928681
O         4.37537559174249      -0.09721103948147       5.00146270641747
O         2.19385283272505      -0.18934790735921       6.18411187534857
O        -0.01750682102096       0.64100453971258       3.98488477131694
O         0.90453150936368       2.76429262358931       3.15585517811349
F         3.26084250075210      -2.64445017175661       4.40629619415111
F         2.80197189353209      -1.42823881533097       2.68748751862896
F         1.24858899881463      -1.96119874246989       4.07477490588183
F        -0.08892020180598       3.52577019629016       5.58188185005104
F         1.82654832786896       2.87310234527195       6.31490420957488
F         0.08003393191139       1.63789627634592       6.59043919742138
