43
C11H24F6NP optimized with ForceField in AMS.
N        -0.22887729514016       0.30246701938784      -0.16552310194850
C        -0.92523686871332       1.27560398650312       0.73964423702401
C        -1.13079179841328      -0.00439196359032      -1.32345654009965
C         0.13216346111023      -0.93524816089838       0.61156361929578
C         0.98968528279307       0.97021428460047      -0.74104876444835
C        -2.32942038197338       0.82418423015385       1.19122407980792
C        -2.51766704957591      -0.52679361952267      -0.91709460812183
C        -3.21588379595522       0.47075128905032       0.00098163474670
C         0.93067606425568      -2.00759516753031      -0.16830430057372
C         2.11350761194717       1.30865309134493       0.26871691587487
C         1.25261347454652      -3.20197328594558       0.72649053267548
C         3.24645723289012       2.06891225494614      -0.41737399390123
H        -0.33541653063656       1.45356610744221       1.66452000414185
H        -1.03920666373951       2.26385971928725       0.23721283176568
H        -1.29999669853112       0.91656060865455      -1.93007381277856
H        -0.66606561982425      -0.72831888257693      -2.02456485113805
H         0.71145227191825      -0.66147306342047       1.52054019173490
H        -0.77477726614838      -1.43324771626766       1.00672132840080
H         1.42950367655633       0.34752578358071      -1.55154382702730
H         0.69525250201141       1.92111435806356      -1.24307985119690
H        -2.26406080711969      -0.03701036430109       1.88824293772196
H        -2.80820670628722       1.65439300775187       1.75536312346776
H        -3.13402090151772      -0.65917621900060      -1.83304900351139
H        -2.44639328561504      -1.52187893251412      -0.43215147636185
H        -4.16858612962853       0.03187671813452       0.36662820408982
H        -3.45813597460269       1.39511918847174      -0.56830542176583
H         0.34465767772644      -2.38822784518970      -1.02913075829528
H         1.89306815942249      -1.60048478276768      -0.53834097367706
H         1.73306493405925       1.94728770368875       1.09071906652237
H         2.54420137526240       0.38367544300304       0.70385406513293
H         1.81754975318143      -3.96093652397987       0.14474174839193
H         0.31590286563916      -3.66822212463706       1.09984044628768
H         1.87412790879601      -2.88059204702661       1.58892609115864
H         4.02453240042585       2.33273884624627       0.32897542923326
H         2.86421064716406       3.00882621008672      -0.86871567370126
H         3.70776095687824       1.44067701099942      -1.20845544651772
P         5.51502836622995      -0.99857486478800       2.45308556766089
F         7.16587912219345      -1.04609141630930       1.98114547078627
F         5.86634187849025      -2.23877632780937       3.58830534374839
F         5.84138831165977       0.20197601929706       3.63757777690793
F         3.86221678751510      -0.93204263799099       2.91685467266135
F         5.30221704423495       0.23500965210889       1.27988725069098
F         5.08875347111438      -2.17342592433652       1.27473429303433
