36
C10H23NO2 optimized with ADF in AMS.
N        -0.04476588064130       0.21653619042294      -0.04239043625430
C        -0.94392341320571       0.45332854145767       1.16579922438183
C        -0.84307350848900       0.32414889112219      -1.33261536950746
C         0.57139909089454      -1.16101281886530       0.04302690381767
C         1.02623177817741       1.31479897731837      -0.04815902213346
C        -2.08341910853629      -0.53263962287225       1.32058453691609
C        -1.74301105019476       1.54186364626781      -1.42776638422147
C         1.58614071070323      -1.48317733693968      -1.03871726835658
C         2.05784341559784       1.20793535056986       1.05498867909881
H        -0.28439506321822       0.45660139874757       2.04290697205336
H        -1.27466624558865       1.50196498139053       1.06743913397187
H        -0.09700844806583       0.33263584418823      -2.13951586523894
H        -1.42115346082363      -0.60912616961582      -1.41994254076065
H         1.02754455626074      -1.22384821286351       1.04152594826384
H        -0.26312171334217      -1.87519282984499       0.00823639531875
H         1.48326328738582       1.27491837053387      -1.04830039233210
H         0.45331111168874       2.25923160904016       0.09682923223168
H        -2.68705479850152      -0.18807289633337       2.17461875964064
H        -2.75044603555992      -0.56667741224755       0.44648693440708
H        -1.75301830528417      -1.55618953188867       1.55170065467374
H        -2.09169743205968       1.62313013520500      -2.46874812882728
H        -2.62651633671419       1.45232802186786      -0.78143506000128
H        -1.23231323921711       2.47294908992387      -1.14496366583977
H         1.96390794213451      -2.50095190750856      -0.85661815674030
H         1.14616942101195      -1.47407690055944      -2.04578198268170
H         2.44689085770155      -0.80116728549123      -1.02073680120729
H         2.77120052771614       2.03167698515126       0.89124339280708
H         1.59209691378602       1.40994731733351       2.03283700021049
H         2.63256818581676       0.26961358013222       1.05273287073362
C        -0.64240906454402       5.11293026975957       2.64154580481498
C        -0.42418059035074       3.70734581998126       2.06146250860230
O         0.08177349759023       2.83980273100631       2.82543243336213
O        -0.76192685128857       3.54686810873059       0.83470334514945
H        -0.91828006200416       5.05486190706016       3.70411183219594
H         0.30433405801615       5.67372496597875       2.57742192811075
H        -1.40446342895199       5.66361356914084       2.07304112244049
