41
C11H21F6N2P optimized with ForceField in AMS.
N        -1.27571996166583       1.30244724538503      -0.24650470086786
N        -2.67375276155337      -0.38733357809273       0.12108355755598
C         1.11051191715296       1.93219997284558      -0.21797171637099
C         1.59388695296548       0.48370012771682      -0.37640096829296
C        -0.25854546003602       2.14199342729827      -0.87614118072397
C         2.99805196751307       0.29429829937911       0.20400465380309
C         3.45142252704480      -1.16301301871618       0.05678543594961
C        -1.80908772835746       0.17114529881984      -0.74774209168852
C        -1.81534459989488       1.46087860623772       0.97882035931799
C        -2.68527590810365       0.41352419665161       1.20582683742971
C        -3.38945937245785      -1.64910022400150      -0.04616598725533
C         4.84863641154913      -1.36849657844732       0.63277963032470
C        -4.85354148794195      -1.38788963251899      -0.37638048188723
H         1.83997746427402       2.62048460480766      -0.69759609961578
H         1.04835399797831       2.19350743357257       0.86120243505077
H         1.60270777504503       0.21446071788847      -1.45584220547963
H         0.89341598637292      -0.19948627052508       0.15171353537668
H        -0.55463433281968       3.20830283787292      -0.78733250697054
H        -0.18757059034131       1.90650223520865      -1.96113703754148
H         2.99217602288377       0.57258392054250       1.28102072701673
H         3.71121075317323       0.95960119543411      -0.33118606106753
H         3.45973216812530      -1.44622453745623      -1.01838502714355
H         2.74076331455475      -1.83221185866677       0.58981417201887
H        -1.54985668190812      -0.25268094154475      -1.71074621989389
H        -1.57884673978088       2.26518816821978       1.66339945151254
H        -3.26238027802483       0.23626024102292       2.10400799446122
H        -2.93196776370363      -2.23921304412366      -0.87045200884944
H        -3.31311195577701      -2.24949120240640       0.88639642053247
H         4.85903148222191      -1.12073340870065       1.71534707798061
H         5.58266424070260      -0.72680804588447       0.10105247285952
H         5.14862847276005      -2.43024477710564       0.50814114293882
H        -5.34024302170272      -0.82767788804827       0.44947390064681
H        -5.38188022716353      -2.35364604023275      -0.51725917716151
H        -4.92965129257107      -0.79670688300101      -1.31381235663322
P        -1.01918955224534       7.01680894834073      -0.50015023910365
F        -0.48298543096976       8.58977789370323      -0.93519369847828
F        -2.02498623233651       7.74301527059106       0.68793814723039
F        -2.25598828003033       7.12153569927311      -1.68766283183358
F        -1.63649375862284       5.49320325803382      -0.00348356752490
F        -0.00299704823097       6.28154173731550      -1.67408270408121
F         0.27001557762220       6.87711512031137       0.62646377475853
