49
C13H25F2N3O4S2 optimized with ForceField in AMS.
N         1.36716661443044       2.26641616592677       0.05936474407286
N        -0.83319510790225       2.42910695876331      -0.21395394250737
C         2.74999791535512       1.86411925629993      -0.18340831474265
C        -2.16373782061631       2.23998916605685      -0.78849114731593
C         3.02024101448755       0.45211986524316       0.35617429246290
C        -2.41463294553924       0.76143303688516      -1.12194071109328
C         2.07352301924325      -0.59395491147407      -0.25337379380776
C        -2.33760111912465      -0.13281061312232       0.12509903132646
C         0.34610884856049       2.17835409093914      -0.81497177321937
C         0.81803234548465       2.59130406370792       1.24675134260371
C        -0.54619989869506       2.70041205444471       1.07536780351618
C         2.41277323157127      -2.00446693978170       0.23597545002086
C        -2.53977856263761      -1.60705857662042      -0.23769696441915
C         1.42143704841224      -3.02723935973906      -0.31187634570074
C        -2.46120158587131      -2.49382234616812       1.00250261913904
H         3.43511069411505       2.58861464514377       0.30718361925991
H         2.96226419715174       1.88746187169022      -1.27192897827718
H        -2.25048428207469       2.84834186145639      -1.71434875668795
H        -2.94081093053297       2.59450228553553      -0.07641160090792
H         2.91206547477917       0.45474916795764       1.46258853610701
H         4.07101194998254       0.18169370768821       0.11316115658353
H        -3.42550864065681       0.66895533592725      -1.57529033214942
H        -1.67095377894797       0.42180248911258      -1.87546805753310
H         2.14434727238048      -0.55916758275098      -1.36296614431827
H         1.02823975586542      -0.36261862126332       0.04158076129772
H        -3.11700999973288       0.18235737235926       0.85270934167840
H        -1.34341116851338      -0.02150459571014       0.60781384612593
H         0.45135507473622       1.85624488248138      -1.84436696848846
H         1.36038370216009       2.68380516131997       2.17857485147297
H        -1.27874206457662       2.89104290251342       1.84863409096920
H         2.37947412476766      -2.03352673749403       1.34697061582097
H         3.43731393665481      -2.27912197554012      -0.09520440890871
H        -3.53287062522216      -1.74380851119623      -0.71742388471821
H        -1.75533071314024      -1.92451011097741      -0.95870637794908
H         1.44188117562085      -3.03130971056746      -1.42220151747264
H         0.39466681370274      -2.78725999748385       0.03082151708843
H         1.68606525216667      -4.04048084742418       0.05591114404138
H        -3.27886028579531      -2.23943402902369       1.70932822283393
H        -1.48541072316426      -2.36054329180404       1.51605795279193
H        -2.56330075340817      -3.55915252572514       0.70707536209888
N         3.77430766581499      -0.45271631768067      -4.65242117849976
S         3.38802915739848       1.10732688493827      -4.95846409961042
S         3.94684223838694      -1.53564811373352      -5.86660096318656
F         1.75952600773604       1.20683719827833      -5.33147056818448
F         5.38872356171353      -1.24220223808132      -6.66437581488953
O         3.67303816160038       1.94341376186961      -3.74511931350634
O         4.18936532116712       1.61907067155211      -6.12234047444328
O         2.81258130015782      -1.39910831660468      -6.84323180951640
O         3.96369208204815      -2.92683278922441      -5.30116967275823
