52
C16H34ClN optimized with ForceField in AMS.
N         0.00614482359312       1.98379820165771       0.01334024239005
C        -0.65164395459187       2.90527833592524      -0.96426470581785
C         0.67146882802722       2.88642710789328       1.00287308887800
C        -1.02390441180720       1.15442507215396       0.71997428645620
C         1.02773017716234       1.15300987927942      -0.70449848894780
C        -0.14326008057999       4.30926267704125      -0.70262722329570
C         0.16387704851530       4.29565969978333       0.76704324786848
C        -1.78816862433988       0.16085138110355      -0.18591578002571
C         1.77748831724208       0.13330785460723       0.18471295777400
C        -2.88348626576955      -0.55988461362735       0.61062869986040
C         2.85316203617742      -0.60044277682699      -0.62762788136489
C        -3.64931850599857      -1.55242656397561      -0.27083235591059
C         3.59678221616535      -1.62829795476948       0.23316515734471
C        -4.71671190261588      -2.29511574902350       0.54063812168261
C         4.68732804608130      -2.33663636479784      -0.57875071356036
C        -5.48393094297152      -3.28297738102114      -0.33278072542827
C         5.45490127312017      -3.33567542003866       0.28180829415546
H        -0.46593284381407       2.62917415240799      -2.02759184521744
H        -1.75799445014112       2.93567276887709      -0.83594132375824
H         0.48943040177290       2.59311451573002       2.06224813662702
H         1.77736012125446       2.91501022933708       0.86986882934999
H        -0.55961724860727       0.58246253232048       1.55335301246474
H        -1.76908206193806       1.82549558159606       1.20792478936045
H         0.55737419470612       0.60122788247775      -1.54807162912370
H         1.78319185611788       1.82232252921118      -1.17895148302758
H         0.79047061016313       4.48742559434467      -1.28177664257982
H        -0.89972835780509       5.08219616097546      -0.95967131210034
H        -0.77044556162057       4.46338347528824       1.34863651383730
H         0.91978592427012       5.06408915369434       1.03822224906877
H        -2.25574717736696       0.69311279728433      -1.04073422365847
H        -1.09257160413197      -0.60517951955502      -0.58654355920645
H         2.26080565465367       0.64817054549213       1.04156417102776
H         1.07063846447115      -0.62422319953069       0.58142595729112
H        -2.41665497321052      -1.10703537706634       1.45940594486004
H        -3.59560190016007       0.18929321368108       1.02183118702114
H         3.58046873572221       0.13933988683519      -1.02853533637470
H         2.37300554428185      -1.12143296122771      -1.48540758772376
H        -4.13700322347446      -1.00185671877084      -1.10539174640089
H        -2.93646587076603      -2.29002527334226      -0.70129609273105
H         4.06066635003237      -1.11434868182584       1.10354734750878
H         2.87299050916666      -2.38312625597409       0.61283973214867
H        -5.43472025716288      -1.56503691759210       0.97397123619562
H        -4.23438468871504      -2.85205165715315       1.37347592517304
H         4.22625788051845      -2.87746110236049      -1.43393666052404
H         5.40321106048532      -1.58694040624018      -0.98081796880000
H        -6.00150958031942      -2.74715674982187      -1.15673199636270
H        -6.24404337334903      -3.80964793887130       0.28161084030900
H        -4.79027132447907      -4.03657526897142      -0.76282209088185
H         4.76223098060840      -4.09456453979697       0.70392594772246
H         6.21484969899207      -3.85456134727716      -0.33958941004526
H         5.97362803855056      -2.80937334027661       1.11123210715359
Cl        5.37409946148444       1.78902417193656       1.09114628643809
