42
C10H22F2N2O4S2 optimized with DFTB in AMS.
N        -0.36723621688832       0.12084070348573      -0.15842888473077
C        -1.20777223168859       0.77580522219797      -1.21966197681301
C        -0.75223841127266      -1.32282561822488      -0.03379699875167
C         1.06647989676826       0.23557519168042      -0.62017316325360
C        -2.70281116244364       0.62154406606469      -0.98209240368741
C        -2.24403827735430      -1.52268681747217       0.20551926486226
C        -3.07126013291762      -0.85760305795823      -0.89207649338555
C        -0.52454628301508       0.82889996032612       1.13772369060276
C         2.09651844194714      -0.46995396180553       0.25502090325418
C         3.49034098233227      -0.22352907199971      -0.33791785575743
C         4.56836498872407      -0.92402462882179       0.48427419264629
H        -0.94436846162133       0.29762123114465      -2.16413427363763
H        -0.91772201357811       1.82753257401579      -1.26108623935354
H        -0.18032499460033      -1.74822730129779       0.79263380376700
H        -0.45303382349967      -1.80857270796337      -0.96393823183095
H         1.28629918524166       1.30429761593416      -0.68455714884837
H         1.10579844013238      -0.18684650179134      -1.62377833132411
H        -3.21258196158246       1.07984555589657      -1.83335157143352
H        -3.02087058842725       1.15157376517992      -0.07914185004282
H        -2.53401633686447      -1.13486832412927       1.18709574125002
H        -2.42745683588195      -2.60025458774847       0.20648051741135
H        -4.13554278533192      -0.96538183472644      -0.67074885373924
H        -2.86528815084973      -1.34303661004328      -1.85006613044521
H        -1.56853172760292       0.82210760910357       1.43928855007068
H         0.07233935649502       0.32618986721223       1.89529050909029
H        -0.18459889082649       1.85613088921156       1.01852265036459
H         1.90602275881256      -1.54598417766203       0.26899973772779
H         2.06492849058558      -0.09942498666913       1.28428470816517
H         3.68904723102814       0.85300144391770      -0.36484167908614
H         3.51157190443506      -0.59596694911874      -1.36573579192111
H         4.40439473086491      -2.00227147510224       0.48949939135374
H         4.56186715241055      -0.56613759466051       1.51523872663067
H         5.54876173291367      -0.72397373971474       0.05278438565228
N         0.96367759919638      -1.40942950973202      -4.86389535570588
S         1.48123665414619       0.04266741441649      -4.47481712870313
S         0.37467104455284      -2.29014578220714      -3.69694142266773
F         2.77738704334177      -0.23882100894632      -3.52218411442479
F        -1.05344310384339      -1.54037342072324      -3.29486560641921
O         2.01069973597411       0.66097997255324      -5.63780712703199
O         0.62099786902164       0.81189830895505      -3.61427238486741
O         1.07475365060822      -2.26403585975098      -2.43845102267229
O        -0.03864761014220      -3.54449099882651      -4.21971185051454
