31
C7H13F2N3O4S2 optimized with DFTB in AMS.
N        -0.22905317931021      -1.27820706444505       0.21541544912913
N        -2.24330889841616      -0.53084278014021       0.32995054097162
C         1.10417245788991      -1.59886704232033      -0.28249926718110
C         2.12125290996300      -0.56945359933874       0.21202169344872
C        -1.18466269133200      -0.65054203257584      -0.46738032308806
C        -0.69494836238042      -1.58125590749292       1.46539503997721
C        -1.96759546628977      -1.11173245285693       1.53678821405087
C         1.84568049592415       0.82707263528788      -0.34123917352588
C        -3.52417687353726       0.04911999187314      -0.03871300600552
H         1.05763139549431      -1.61696643555638      -1.37293022298696
H         1.36006667775751      -2.59828100688479       0.07598902429075
H         2.11030715714520      -0.54444445896660       1.30597907536546
H         3.11172957459792      -0.90240136174635      -0.10938622660771
H        -1.12761943886755      -0.34267635598264      -1.49702762386848
H        -0.09670535740106      -2.11356373183062       2.18362763591233
H        -2.70057230448436      -1.16540925278290       2.32213262143992
H         0.86969834315507       1.18615244073959      -0.01114966420161
H         1.86206609522828       0.81578688286651      -1.43154910169660
H         2.60724618053760       1.52169600688634       0.01139512749512
H        -3.57097687332534       0.13526214838429      -1.12223362014227
H        -4.31550210003597      -0.61300378766993       0.31050708277170
H        -3.62255307007687       1.03204297958888       0.42455435879501
N        -1.86679838495460      -3.74598327169192      -0.55021983025490
S        -0.94566214140893      -3.98884714244441      -1.81922496632472
S        -3.34970767976651      -3.24566452950914      -0.82109562002270
F        -0.75695834044074      -2.46442677592074      -2.44767048163330
F        -4.13624549466337      -4.51873722088056      -1.40292609738947
O         0.36519799592503      -4.28978906572479      -1.33386446262819
O        -1.48631897448798      -4.73646036927576      -2.89994287867922
O        -3.49787907954734      -2.23087652303256      -1.82484096087349
O        -3.94642434959154      -2.99669988585651       0.45879905916234
