43
C13H27NO2 optimized with DFTB in AMS.
N        -1.31249394985299       0.11866289448059       0.05321051389676
C        -1.77489533343436      -0.91661636894904      -0.92013023648734
C        -2.26765453251286      -0.03213871094051       1.20165542521016
C         0.07186658938606      -0.16907058610462       0.56122394101075
C        -2.16911032213117      -2.11724120928747      -0.06378604048966
C        -2.52079192175470      -1.53159306085403       1.31420343032823
C        -1.40549575058334       1.48371128346073      -0.55734256514583
C         1.19245911300669      -0.11867019749371      -0.46696073614041
C        -0.90135274705211       2.59564820469038       0.35224953748862
C         2.49092829113848      -0.49113824895563       0.26410750542420
C         3.72004160560551      -0.25019323204684      -0.61457709646542
C         5.00443516108971      -0.61634058611789       0.12727894437206
H        -2.64138870053893      -0.51186005472859      -1.44935957808864
H        -0.98530165010524      -1.13243967477277      -1.63911495495685
H        -1.80590232754983       0.40168673329596       2.10011481818566
H        -3.18372223387860       0.50711415732831       0.94961643692612
H         0.26430506796198       0.56670455999068       1.34309880351922
H         0.04649689381342      -1.14628887039649       1.04286089400206
H        -3.01715029283037      -2.63748339403840      -0.51256156559969
H        -1.34011114067456      -2.82326707375131       0.01483311065943
H        -1.89288545677970      -1.97181378607857       2.09087331680673
H        -3.56404453226180      -1.71870162709072       1.57371938850674
H        -2.45927650771323       1.64480449232790      -0.80245680582544
H        -0.83585394498818       1.45895152073503      -1.49042979748345
H         1.28467223885771       0.88760235582111      -0.88663608545882
H         1.02238604625222      -0.81535621035960      -1.29482286090116
H        -1.28706793826476       2.49221448219974       1.36483629069354
H         0.18527539546514       2.60239462793859       0.40413335842570
H        -1.23437460996353       3.54765176175270      -0.06058187979892
H         2.44661638340010      -1.54514211058581       0.55614079158513
H         2.56331277852453       0.09800797775429       1.18406310183034
H         3.64227108895700      -0.84939603804748      -1.52908820883409
H         3.75791348001073       0.80456919360941      -0.90896302692172
H         5.87112221597705      -0.43165392061031      -0.50801546208421
H         5.10263541426583      -0.01969364845995       1.03456110750847
H         4.99599802751266      -1.67116210918095       0.40541458184503
C         0.60475575876722       1.03697943504208       5.21894143146083
C         0.37689178724748       0.73311706386830       3.71946412174709
O        -0.56436767702788       1.36426073530123       3.17097502501836
O         1.12698486294795      -0.09867962892231       3.18141740393516
H         0.88087438479371       2.08502169707666       5.32766934898897
H        -0.32251545299283       0.86457988887918       5.76382757069699
H         1.39451105710977       0.40436609282008       5.61926699320928
