37
C13H21NO2 optimized with ADF in AMS.
N         1.17307926656444      -0.94196953867423       0.17732776353583
C        -2.36272123161346       0.39063705462287      -0.36569596676881
C        -0.96588674152063       0.31536553563034       0.25052819999050
C        -3.31893555758833       1.21849603854645       0.49198906334324
C        -0.10983123650825      -0.69146010321479      -0.50915111102196
C        -4.75468174530298       1.24790538726327      -0.04231889246900
C        -5.46223729468464      -0.10590462869822       0.03561504855697
C         1.12614010945439      -1.62849623884813       1.34804217569337
C         2.34575498647925      -0.52423398732957      -0.35682037063407
C         2.31357571944259      -1.92179485369896       2.00262414550937
C         3.54246435363926      -0.79692219536003       0.27495763199676
C         3.53267366415785      -1.51045170983330       1.47469834786711
H        -2.74107764355789      -0.64015734647112      -0.46536126325479
H        -2.30891794008970       0.82249356586611      -1.38377608542898
H        -0.47856769398306       1.30780051405813       0.26982956487059
H        -1.06734704439989      -0.04313285787722       1.28901978098125
H        -3.32356092582722       0.80139999793285       1.51685906131628
H        -2.93296803603039       2.25183864702259       0.57208825442842
H         0.11988653148459      -0.36180946858991      -1.53394185553032
H        -0.65369890982804      -1.67133191600129      -0.49696301933886
H        -5.33309034678426       1.99211895380565       0.53327466394536
H        -4.74581182565571       1.60451899069434      -1.08959476415175
H        -5.49443687649550      -0.46782964141151       1.07599522314534
H        -6.49978621756738      -0.03592134358692      -0.32737663854347
H        -4.95101595778096      -0.87484149011042      -0.56252900120547
H         0.09459990507188      -1.92673277390971       1.72303591931046
H         2.27924110653090       0.02521299746483      -1.29416602836891
H         2.25648414504136      -2.48469726416838       2.93529742132576
H         4.47278543888455      -0.44806418305280      -0.17278862374377
H         4.46817837471936      -1.73552597578512       1.98938867692279
C        -3.48141080227355      -3.40492798126757       1.87256664876475
C        -2.13741899215207      -2.82723227217092       1.42336310015371
O        -1.44732061559037      -2.24748117319166       2.32341142456971
O        -1.82002140815688      -2.96582820264501       0.20190636756901
H        -3.30962579952518      -4.15752217232715       2.65736338242847
H        -4.09396614134637      -2.60792991322463       2.32035086290060
H        -4.02616757540768      -3.86403476155886       1.03737721483451
