26
C8H12BF4N optimized with DFTB in AMS.
N         0.52365041760019      -0.27935849453532      -0.63031764251459
C         1.58831679704134      -1.27297081492643      -0.85793059800533
C         2.25400829406906      -1.73642044867267       0.44048467977548
C         2.91307978469156      -0.59067427207519       1.20283356469243
C         0.58179117601646       0.89533135688200      -1.27278954973654
C        -0.47063440739823      -0.54197538391373       0.24311391631527
C        -0.40949989797424       1.85249340005050      -1.08451692442338
C        -1.45617406273601       0.38300466036027       0.47971886680713
C        -1.42828753465926       1.60979752457190      -0.18990252792526
H         1.13812920582716      -2.12446418613696      -1.37815627225397
H         2.33251083781100      -0.80306769400271      -1.50555508250978
H         3.01184792124204      -2.47188440009636       0.15320180629596
H         1.52538591716339      -2.24739637649165       1.07840326267297
H         3.64066694681079      -0.08499576902409       0.56956160269269
H         3.42042471214050      -0.98320138632655       2.08394446258296
H         2.16813427143750       0.13826229102851       1.51858777663403
H         1.36773633123603       1.02962510168863      -2.00347853470128
H        -0.45928744704825      -1.50901233598498       0.72993515520146
H        -0.32126870624865       2.79030837055652      -1.61749876996181
H        -2.24397898227043       0.15117794825622       1.18491746626577
H        -2.20021353279096       2.34751813752558      -0.00769063018498
B         3.07084610028011       2.24022100141716      -1.02490529981536
F         2.09443032576155       1.92123240374662      -0.00068732497707
F         4.11154207005880       2.92907067678846      -0.48641680438148
F         2.38237010693674       2.94260294866532      -2.01407253165149
F         3.47314409750181       0.98863571754897      -1.55310999719382
