34
C10H18F3NO2 optimized with ForceField in AMS.
N         0.42703455280235       0.24252520107501       0.04737339406754
C        -0.52471597286071       1.28302444599676      -0.45684832054301
C        -0.08481395682989      -1.12620732351520      -0.26855735722382
C        -1.98354168973690       1.07981664229727      -0.00674119376670
C        -1.52722660829036      -1.37158668379571       0.20597190121736
C         1.72782458983668       0.47304901851639      -0.66434431402228
C        -2.47192903659831      -0.31967011578346      -0.36265298785368
C         0.62947328750495       0.40780648427203       1.51289360325913
C         2.88015046500090      -0.47142515514745      -0.27484448304226
H        -0.53041190130601       1.29212940306171      -1.57188360184702
H        -0.19928159116454       2.29904038876634      -0.13521901418960
H         0.54833674321330      -1.90536166125420       0.20804623791216
H        -0.05283673288928      -1.30481201200713      -1.36819841982109
H        -2.62616648673287       1.82429335260403      -0.52467852911735
H        -2.09825149631568       1.26242660746784       1.08169739359779
H        -1.57965534127425      -1.37365778740867       1.31550533070872
H        -1.85586881015231      -2.37528021530646      -0.14108218925848
H         1.58711279249693       0.37583420377999      -1.76559266933354
H         2.08201128986981       1.51522730752992      -0.48919618092128
H        -3.49182157715309      -0.47369061600028       0.05098447793330
H        -2.52694563247208      -0.42626262959498      -1.46863843917967
H        -0.32499951768847       0.40665721131716       2.07374385991504
H         1.23096868536853      -0.42352145856433       1.93793132345659
H         1.14487301147170       1.36724399939582       1.74050945593971
H         3.77169586060127      -0.21601780940397      -0.88568860301855
H         3.16768422972659      -0.34913748579295       0.78863877180903
H         2.63448330819617      -1.53087206904868      -0.48667806171564
C         0.23988010987786      -5.13204855209823      -2.03352611247461
O         0.62853683935014      -4.13836589355152      -1.44118932859356
O         0.34948893755131      -5.19111930261839      -3.24755139527251
C        -0.36310427404030      -6.28078928007711      -1.28029264088497
F        -1.63190867062223      -6.53807993686256      -1.76644311155235
F        -0.44934260659484      -5.98656272530447       0.06968568909827
F         0.42469583325360      -7.40490788314452      -1.44733421928269
