23
C7H10BF4N optimized with ForceField in AMS.
N         0.13773872785575       0.00500785508760      -0.33988946065235
C         1.57909612109223       0.01324257857420      -0.61663890328712
C        -0.53524378322348       1.18925696082659      -0.21164515240487
C        -0.52285935892338      -1.18615573802139      -0.21051916771909
C         2.37210514898929       0.00627594432237       0.68559135669407
C        -1.90814003940071       1.20020291652702       0.04426337745581
C        -1.89584866218561      -1.21087189667743       0.04518100368507
C        -2.59095166411049      -0.00874877797713       0.17098389007133
H         1.86192952286203      -0.87274714431513      -1.22716042041607
H         1.85337261013341       0.91321707622757      -1.21000737768150
H        -0.01099096162127       2.13333551550453      -0.30461233016183
H         0.01109628949622      -2.12486197119829      -0.30303223326898
H         2.12967706373449       0.90845987231211       1.28629093465442
H         3.45918933499384       0.00769431814623       0.45954996128976
H         2.12997732516488      -0.90174622772072       1.27763929255942
H        -2.43682442847619       2.13940945580645       0.14483912570145
H        -2.41536338056916      -2.15516801879638       0.14628000473014
H        -3.65494101753059      -0.01391479139985       0.36951174083112
B         5.26349335314448       1.84783443538439      -2.44144293511233
F         5.68735209429213       2.38219355620478      -1.19583570593752
F         6.39476400548656       1.40410787761792      -3.17619725709265
F         4.58290432567942       2.85167730697919      -3.18028029781907
F         4.38976786991617       0.75252646848539      -2.21435522111921
