36
C8H18F2N2O4S2 optimized with DFTB in AMS.
N        -0.48537135586724      -0.23137898545511       0.25726433577902
C        -1.44204732398843      -0.89332504469077      -0.69125102233024
C        -0.98744091662981      -0.65352447068886       1.60442301895297
C        -2.80566731220809      -0.81798498371784      -0.01005699382111
C        -2.50843815164647      -0.62443261359139       1.48523952013219
C         0.91955712305817      -0.68502794513398      -0.01859298865790
C        -0.57949223874927       1.24423900678980       0.11293079641671
C         1.90786288747723      -0.34980160565482       1.09702164629168
C         3.32746560439451      -0.67294369497777       0.63335521291758
H        -1.12370772462769      -1.93197696173131      -0.80552602826368
H        -1.40013297812553      -0.39029592657049      -1.65762539731914
H        -0.59789001424080       0.01932832284123       2.36824345122963
H        -0.62910692423968      -1.66744187605942       1.78939603450359
H        -3.35130458652331      -1.74577986349774      -0.18911145390736
H        -3.39687384266476       0.01229299107162      -0.40209073955790
H        -2.91266379749420       0.32494794429935       1.84393704242107
H        -2.93833782304822      -1.42862205363622       2.08262492863377
H         1.22051063783138      -0.21778138898908      -0.96052815193870
H         0.88376708475462      -1.76512816542337      -0.16548253965306
H        -0.25846678971861       1.52289545649171      -0.88922817821211
H        -1.60943962988576       1.55606480591874       0.26899574778185
H         0.06161539260115       1.71987602041837       0.85176474533644
H         1.83915195677742       0.70802897017121       1.36779463251862
H         1.67623361823983      -0.94834056029742       1.98175662803696
H         4.03147598352177      -0.44300479571062       1.43205828489802
H         3.41148681413089      -1.73113040239348       0.38817898634934
H         3.58996744755688      -0.08415247961360      -0.24646291361174
N        -0.17941484657217      -3.92254901583888      -0.04321237425938
S         1.01630376811084      -4.02412763037101       1.00331605025849
S        -1.61907637197170      -4.40673929431192       0.42112283322773
F         1.10231465578089      -5.55570416201494       1.45622606353757
F        -1.96339103781915      -3.46845943416670       1.72842713533064
O         2.22507638986887      -3.76705734874553       0.28439883967038
O         0.80340435961496      -3.28843158999522       2.21883959215172
O        -1.72465975453572      -5.73526890218306       0.91217175246093
O        -2.54720340376282      -3.93969932694145      -0.56278204610457
