32
C10H18N2O2 optimized with ForceField in AMS.
H         0.46438582139964      -0.44938343137134      -4.90879762718031
H        -1.19072346785398      -0.67288764005450      -4.21942501683259
H        -0.00895019951688      -2.03511318644130      -4.17180077265404
C        -0.11781479774330      -0.93285308831695      -4.09668432832988
H         2.50957663837607      -0.07161493071797      -0.37774748387894
H         2.42524460862293      -1.15824569655988      -2.81422530124986
H        -1.35903064206383       0.47281070301194      -1.95007722413068
N         0.37469720676150      -0.47779638642668      -2.80285634655247
C        -0.31838717356158       0.18595577929040      -1.85802822823551
N         0.44573667745052       0.43119484581711      -0.77580965048722
C         1.65817638319630      -0.09321476526020      -1.04589523222527
C         1.61440691380296      -0.65461349165889      -2.30537145738632
C         0.03689086787782       1.11161614112646       0.44995447210539
H         0.82973411130461       1.82828057523963       0.75782100376132
H        -0.89530385987758       1.68916456835923       0.26400662048741
C        -0.21280364129295       0.08945157806683       1.56080064040565
H         0.72018544766034      -0.48513478967484       1.74936151457688
H        -1.00160076093796      -0.62025967450788       1.22758608384746
C        -0.65997065597344       0.77941791240186       2.85358701234034
H         0.12691940138283       1.48816357366964       3.19175244847451
H        -1.59475905081695       1.35237907068200       2.66899030115329
C        -0.91625490298726      -0.23993419040938       3.95873295367937
H         0.01012613720893      -0.81281381810728       4.17676028011145
H        -1.72003364559929      -0.94365734194691       3.65427300402352
H        -1.23529376585649       0.28601110349549       4.88304742403725
C         4.34416359843584      -3.62838630391363      -4.16046968839917
C         3.28016586341603      -3.50837109227316      -5.20500480103143
O         3.20023640873515      -4.33839044546289      -6.09573077338606
O         2.49967976543227      -2.57155409223897      -5.18013035041949
H         4.54824578378469      -4.69828072583090      -3.94443444599028
H         5.27468868622790      -3.14601151165475      -4.52512823784817
H         4.02206898730515      -3.13290655253229      -3.22029817338615
