43
C13H27NO2 optimized with ADF in AMS.
N         1.43343340865904       0.06436107747138       0.02600416144922
C         1.29724279840411      -0.74850373443207       1.30715288042422
C         2.14953541051227      -0.91724072943211      -0.88398991632490
C         0.08163831405518       0.41235005744908      -0.56103041443611
C         2.60193374016568      -1.54554913077877       1.41870761600674
C         3.21602576378601      -1.55768707028226      -0.00615354585920
C         2.26960750868669       1.27475207037543       0.24938654655122
C        -0.71886451130803       1.41337254883665       0.25820219501665
C        -2.17154232228028       1.46910865806113      -0.23838099864284
C        -3.00906080880180       0.27079171450119       0.20748125960393
C        -4.42509894553025       0.29380958960504      -0.36131800253176
C        -5.24519338118820      -0.91518271472716       0.08397926722166
H         0.43194637318075      -1.41249843748924       1.11490124023411
H         1.10407445706192      -0.06185490574735       2.14214562432574
H         2.50818763344063      -0.38065592322582      -1.77396039596993
H         1.40727128974519      -1.70438076185063      -1.11737232548420
H        -0.43564910375936      -0.56643427927535      -0.62072423551047
H         0.27821044866523       0.80253227199489      -1.57313085855729
H         2.35771047905087      -2.56853618526227       1.73662728101397
H         3.29558983917497      -1.10304671343958       2.15021986566577
H         4.17358842320633      -1.01455853183269      -0.04137845882854
H         3.38056496118789      -2.58679634309905      -0.35415057563066
H         1.78301831300104       1.91991577890056       0.98967213704940
H         3.25387658617824       0.96638337954153       0.61982413077357
H         2.37918332088445       1.81085990772855      -0.70272899005165
H        -0.72806903461448       1.11333560915276       1.32094379285831
H        -0.27035848229063       2.41989273141319       0.20010968337684
H        -2.17748572117056       1.53765648263042      -1.34317745072795
H        -2.63741457946689       2.40099862930860       0.12878445595604
H        -3.06216343731712       0.26744807108105       1.31338354745824
H        -2.51955277541716      -0.67758815119714      -0.07206033942451
H        -4.93484528581255       1.22744646176314      -0.05802893562755
H        -4.36851479368827       0.31405126444393      -1.46569981378294
H        -5.33752828434738      -0.94215874589475       1.18206597308931
H        -6.26025658341311      -0.89700853964851      -0.34182947879213
H        -4.75401679343742      -1.84992532987625      -0.22918779851572
C        -1.19404941805230      -4.71602017116616      -0.38415076244678
C        -0.36180791898830      -3.43497271260448      -0.26653911893392
O         0.89060530892131      -3.54712249972123      -0.40279330260303
O        -0.99966882335888      -2.35584438787683      -0.01735744394877
H        -0.86527596576722      -5.30312119134192      -1.25382824424965
H        -1.02107973370338      -5.33715813220014       0.50919619160173
H        -2.26680522545419      -4.49331883185678      -0.45692637589615
