31
C7H13F2N3O4S2 optimized with DFTB in AMS.
N         1.82322890285486      -0.47737581298605      -1.87682462046485
N         0.44728854825179       0.66073532646309      -0.67325982384003
C         0.76547670975398      -0.57073230471897      -1.07342608159766
C         2.51951438909483      -1.60395821214553      -2.49760240817805
C        -0.61065619195806       0.97922077877026       0.28113549256717
C         2.20432652707834       0.83156882447886      -1.96720311315126
C         1.33847242814508       1.55001905970123      -1.20499857782814
C         2.90145127808420      -2.64608546880358      -1.45389656639648
C        -0.09638990858994       0.84162359903890       1.71065202353665
H         0.24532539026607      -1.47351028397889      -0.80512337998445
H         1.86333610777243      -2.03245370398598      -3.26277475119977
H         3.41424056014250      -1.20023816017229      -2.97518625791693
H        -0.94147251427561       2.00174491146144       0.08222736763701
H        -1.44307941291419       0.29319908087654       0.09791528420561
H         3.06574155982890       1.13934514083947      -2.53254233266831
H         1.30103815878863       2.60110549906016      -0.98205504701561
H         3.49036246322470      -2.18051609085685      -0.66604226910765
H         3.49829351753694      -3.42017888747261      -1.93398010038686
H         2.01570998894573      -3.10386723550167      -1.01466265746283
H         0.31944766833566      -0.15219219430989       1.86952188448466
H        -0.92270486994607       1.00039390383031       2.40191461645003
H         0.67953661681767       1.57899585010041       1.90540923130343
N         5.05586769162120       0.58849143971153       1.16567175826386
S         3.53794344338741       0.71485311264722       1.56566320802796
S         5.42770818110214       0.70263532082259      -0.37544115931133
F         2.78182563384459      -0.58618723847441       0.85993494124490
F         4.85911547601494       2.15054753689315      -0.85760991769704
O         3.40209174194271       0.45813068692535       2.95871264241578
O         2.81507866028951       1.82315134853328       1.00339532508145
O         4.73517284807537      -0.21203376432436      -1.24496581677676
O         6.84040096948369       0.80175623347727      -0.48846824553450
