29
C9H14BF4N optimized with DFTB in AMS.
N         0.81510730789051       0.24037998416101       0.34854222780435
C        -1.53620184575153      -0.10628623823586      -0.37067076610004
C        -0.57111502137059       0.06988699244313       0.80251365650043
C        -2.97900082986102       0.05353790801442       0.11925028460838
C        -3.97402811310513      -0.16657125262733      -1.01737081185013
C         1.11518868561299       1.34677407751811      -0.34817126084879
C         1.77301095689201      -0.61379314903264       0.74284135837459
C         2.42867689087074       1.63494330109188      -0.67547996759508
C         3.09231645178152      -0.37710311715205       0.42880131261066
C         3.43470969942394       0.77314048361863      -0.27964338389819
H        -1.38730228246068      -1.08938078121486      -0.82901536383597
H        -1.33399269903859       0.65916254560305      -1.12310299217879
H        -0.60891388236575      -0.79039934465441       1.47477488328632
H        -0.81530971942861       0.98082279704868       1.35929151216846
H        -3.17619394593488      -0.66078210090840       0.92574525976958
H        -3.09815995854989       1.06444648786790       0.52071035850511
H        -4.99124816278719      -0.03649173067466      -0.64845944355608
H        -3.80088246572908       0.55171448817433      -1.81940676323755
H        -3.87753233664145      -1.17419996576092      -1.42505571646104
H         0.29555744997498       1.98199551375339      -0.65631206010992
H         1.45996946148657      -1.47724036167111       1.31763036231805
H         2.63760466448699       2.55376241322538      -1.20816832417894
H         3.85015846566855      -1.07804444079879       0.75451874007703
H         4.47211205654122       0.98329960713686      -0.51002499373981
B        -0.24729316735341       3.60448038443872       0.82259262312168
F        -0.69873783540529       4.59043659145272       1.64399386188117
F        -1.31829932444802       2.83353696063821       0.28292976899674
F         0.56751471151626       2.66423053783628       1.54225844092366
F         0.52484264628484       4.07824180810837      -0.24361873565590
