40
C10H22F6NP optimized with ForceField in AMS.
N        -0.11126431543878       0.02744718843902      -0.07027819743777
C        -1.02384119016667       0.53265499946659      -1.14685037832966
C        -0.62730469666638      -1.29233373264528       0.42013275926834
C         1.22966854745312      -0.19314256630527      -0.71293273613319
C        -2.49831306155802       0.63729034174749      -0.72109983139879
C        -2.10222399637769      -1.26325937606274       0.86839261418030
C        -0.01975761468906       0.99190578485940       1.08114612643839
C        -3.00702707946694      -0.71295418153365      -0.22893019548580
C         2.36243130304346      -0.65136994623869       0.23920112171659
C         0.59440831256312       2.36591375522907       0.75375838970251
C         3.66277393239073      -0.86773163866793      -0.52943202484728
H        -0.99064864803659      -0.15135144201904      -2.02697504728123
H        -0.69250228112416       1.51933626319418      -1.53130535921928
H        -0.03540070501637      -1.65300237167790       1.28860398326930
H        -0.53457758269315      -2.06674392796124      -0.37578081916925
H         1.56504080044239       0.72974620247272      -1.23637936026997
H         1.14176912589616      -0.95971595639346      -1.51753310204497
H        -3.10761031793092       0.94818400834360      -1.59746334292381
H        -2.64092978235212       1.41506511646139       0.05729293826053
H        -2.22135696421660      -0.66749400871965       1.79740355299605
H        -2.42639371598960      -2.29919692492628       1.10769195610097
H        -1.01601186396959       1.19099953965226       1.52002841581806
H         0.56093564531450       0.54615204100214       1.91713011355566
H        -4.04080762762482      -0.60024004287448       0.16376358103207
H        -3.03641219306145      -1.43007920654538      -1.07913214123868
H         2.56119453272738       0.11202989048572       1.01809491263964
H         2.10289104290066      -1.60821807159941       0.73522346899620
H         0.63316728220281       2.97067013035516       1.68409146291110
H         1.63396047308062       2.28248604498238       0.38022921636795
H        -0.02653155363232       2.92864868222532       0.02869772820275
H         4.46580764281198      -1.17399388109837       0.17412530392133
H         3.53442115790584      -1.66710472931901      -1.29056576699279
H         3.97184639787656       0.07318392359749      -1.03097710167299
P         7.21155576936209       1.93662979428484      -1.96743235444067
F         6.08217339311525       0.74877793169178      -2.48003612669222
F         6.38598199963799       2.17122642177607      -0.47898541169527
F         8.14434219569130       0.71887051138945      -1.19383215035215
F         8.40994563092440       3.10269146394726      -1.57291691380316
F         8.02562353012557       1.69577565369890      -3.46095571161952
F         6.22639893234530       3.17304940858557      -2.63994430252930
