47
C15H28N2O2 optimized with ForceField in AMS.
N         1.36101750555419       2.27565470977622       0.02956963054309
N        -0.84435238109866       2.43619858086134      -0.20972704096818
C         2.73788306115628       1.85936337003359      -0.22862525379715
C        -2.18323198525073       2.24439504538251      -0.76544318891837
C         3.01103597482618       0.46875327698113       0.36297264687702
C        -2.43138341080191       0.76646108662359      -1.10372404574427
C         2.09511856845490      -0.60518207527775      -0.24498202200764
C        -2.37743461687573      -0.12539149510711       0.14551673934495
C         0.32574592450310       2.17992747990519      -0.82677155856822
C         0.83053785576984       2.61436334886286       1.22195540204276
C        -0.53657760762509       2.72049344712899       1.07202629753563
C         2.46068914690712      -2.00249770567843       0.26460243814922
C        -2.57458535828526      -1.60032947071656      -0.21950882071292
C         1.50533983481038      -3.05512037499927      -0.29137775758393
C        -2.50683044275704      -2.48648393150185       1.02137232573323
H         3.43551280383609       2.59857144823317       0.22065092187493
H         2.93046148996631       1.83973067096223      -1.32399528061186
H        -2.28526331220248       2.85585918071607      -1.68758432631815
H        -2.95269342462721       2.59306910997798      -0.04158741654782
H         2.86713348295615       0.50164546051406       1.46521273226774
H         4.07256412257653       0.20551379518122       0.16273096647390
H        -3.43338622507179       0.67408885566028      -1.57643054249172
H        -1.67447339872793       0.42439936948766      -1.84326535010052
H         2.18233208691482      -0.58362826216918      -1.35385657435570
H         1.04023283840390      -0.39017848883239       0.03087199932873
H        -3.17154263128736       0.19129740249360       0.85713061979259
H        -1.39158878612845      -0.01176515611690       0.64575894421871
H         0.41407677352749       1.84800297640632      -1.85428352251001
H         1.38710021832342       2.71379076795887       2.14499311266150
H        -1.25562795184530       2.91541990624370       1.85652851479959
H         2.41016623663832      -2.02268326947717       1.37526785258822
H         3.49758937487431      -2.25455277359679      -0.04749419071910
H        -3.56356723903743      -1.73785872179077      -0.70854733175381
H        -1.78137661295462      -1.91814494954536      -0.93141183229880
H         1.53969042395555      -3.06091399317779      -1.40177413700152
H         0.46675064012312      -2.84582494251888       0.04043914434801
H         1.79952981377413      -4.05916134360226       0.07995256440886
H        -3.32722338428141      -2.22757124887659       1.72415177754380
H        -1.53091249808996      -2.35875363569662       1.53683958758496
H        -2.61396141714274      -3.55111114747664       0.72480052937701
C        -3.94108154775467       4.51368400448197       3.39135903910596
C        -5.39674426483860       4.17073265214488       3.36538369289116
O        -5.74876041403458       3.00357724550711       3.41843187393066
O        -6.23631432348017       5.05356284143475       3.29171568590051
H        -3.49226493967993       4.16059858549760       4.34352375105818
H        -3.42822331538754       4.02100992431588       2.53926026809126
H        -3.79529026508556       5.61227515158552       3.31162941653750
