31
C9H19NO2 optimized with ADF in AMS.
N         0.41075820790910      -0.05944642230217       0.39471578432274
C         0.39504447092378       0.98818047703622      -0.68882684731337
C        -0.79435161974579      -0.98273461272661       0.22728169863833
C        -0.89320729493033       1.79778099513965      -0.68558845884972
C        -2.10151072503011      -0.22024730863182       0.21548669202570
C        -2.11601070150636       0.88940874816197      -0.83472676778507
C         0.42832786666597       0.56953398553514       1.76237333762030
C         1.64171166498949      -0.90509405685450       0.28288183339331
H         0.50511580081967       0.44435048439825      -1.64197133651491
H         1.28481568362178       1.62008682832024      -0.54003755457920
H        -0.72893233664559      -1.67723084179225       1.08222757626218
H        -0.61806449705268      -1.50524112668595      -0.72867096607373
H        -0.83546207797337       2.52146184944901      -1.51574316066385
H        -0.96284358702435       2.38946720730558       0.24209445057428
H        -2.29609678759390       0.15052476632590       1.23459167083186
H        -2.89730127736203      -0.95757505005817       0.01959712307887
H        -3.03972917084401       1.48486842583223      -0.75546617904810
H        -2.10614538203967       0.44230485369372      -1.84697891421848
H        -0.52598349595599       1.06196731518961       1.95941458575341
H         0.55282061426071      -0.26729061054736       2.47153926482106
H         1.26113258749412       1.28665710664965       1.78205419723418
H         1.66023238561198      -1.36845839937295      -0.71229712973188
H         2.52135627167119      -0.26142672462269       0.41842014113511
H         1.56989437023998      -1.66110911542002       1.08157599739914
C        -1.01835406222631      -3.00258227349618       4.63015778844354
C        -0.77243682331154      -2.07246582236613       3.43570648473735
O         0.33588846010428      -2.24417128331072       2.81241615405263
O        -1.66738201878342      -1.23062028659816       3.14653758065599
H        -1.22067866991487      -4.01849506590095       4.25622624838220
H        -0.11819953732174      -3.06275208044060       5.25870045473979
H        -1.87770757174996      -2.66333186180993       5.22325704837636
