34
C12H19NO2 optimized with ADF in AMS.
N         1.43139805595028       0.23281196342922      -0.75444304665627
C        -0.90369911131417       0.32830491299434       0.00813588011353
C        -2.35229651923200       0.55080757296455      -0.41684892748988
C         0.07268985916371       0.72853548263588      -1.09531193799168
C        -3.33633532587862       0.20302884880841       0.69911749945867
C        -4.79245869874882       0.36917191443213       0.27244702239012
C         1.89300084139848      -0.86414659810053      -1.40370458690610
C         2.11301087380044       0.80499455330361       0.26565893198697
C         3.09926089664663      -1.42688525977988      -0.98963778540508
C         3.31889501815518       0.28746853508605       0.68254213108642
C         3.81647082322816      -0.86163866529124       0.05122003546453
H        -0.75144598178905      -0.74708221627451       0.20016541459663
H        -0.68895408778094       0.89234656284053       0.93575710137517
H        -2.55698076611997      -0.08601342748985      -1.29631958663414
H        -2.50836581768818       1.60031658174215      -0.73173596290665
H        -0.19034474474205       0.24339531023830      -2.05068617055997
H         0.13942487496658       1.81957326827107      -1.23167746649666
H        -3.13213112864343       0.84097383115736       1.57949623610097
H        -3.15725802276415      -0.83945666096379       1.01775086900536
H        -4.99866637601807       1.40787507485481      -0.03380632041266
H        -5.48296416065213       0.11478345417160       1.09073630838874
H        -5.02563824956591      -0.28477003513683      -0.58303796088736
H         1.27349428879804      -1.19100009731869      -2.26801578854693
H         1.65123910977727       1.68288597089281       0.71473122550272
H         3.45907815197375      -2.31425534880902      -1.51122090029359
H         3.86220801416931       0.77596409289074       1.49064904785998
H         4.76642991500682      -1.29387751415482       0.37119776908247
C        -1.74397941843009      -3.10883742892745      -3.32116932882838
C        -0.67385675701457      -2.24126594663417      -2.65733222504086
O        -0.44091464826983      -2.41508913250991      -1.42052843801935
O        -0.07414368965046      -1.40564678940045      -3.41190212833115
H        -2.39633576452015      -3.59255973262227      -2.58239776131754
H        -2.33499752385379      -2.50265172473937      -4.02320067450007
H        -1.24269957715830      -3.88927927846079      -3.91548956378795
