57
C15H28F6N2O4S2 optimized with ADF in AMS.
N        -1.90827762962914       0.16170552826299       0.01319025473770
C        -2.97482237791564       0.84355520721002      -0.83220320939672
C        -1.92648852948154      -1.32452549154000      -0.27979992363057
C        -0.57096190523895       0.74529226309342      -0.41628470910422
C        -2.14957879446688       0.38823848940557       1.50021219009132
C        -4.35559117210116       0.24546279294086      -0.64612163059966
C        -3.29491167595658      -1.96047375213659      -0.08742346681182
C        -4.35622741490778      -1.25513134541610      -0.93033707751358
C         0.64579347234373       0.26332908626936       0.35114658642699
C        -1.99699385279926       1.81983538221316       1.96457455452949
C         1.86497440141958       1.07270676403143      -0.10378839470769
C         3.13553885643220       0.69585069734327       0.65115677533722
C         4.33547599463598       1.54638096042093       0.23957580189489
C         5.60799243205191       1.17691735477703       0.99565738642742
H        -2.63595434095342       0.73013567496418      -1.87427398605454
H        -2.93552458199304       1.91336042042623      -0.60355106753511
H        -1.16553666272026      -1.78985599053261       0.36119854382689
H        -1.60563181475829      -1.42276052842172      -1.32946749975218
H        -0.66370412762254       1.83563353800908      -0.33207349741164
H        -0.47957500252067       0.51017956791558      -1.48831506709592
H        -3.16219939044587       0.02048841894010       1.70429459199525
H        -1.44453080290422      -0.28105483233342       2.01495235664088
H        -5.02755667010450       0.77990867104057      -1.33589211049893
H        -4.73964776490926       0.45690329040902       0.36557285786395
H        -3.57782853343960      -1.95620784929092       0.97850756020085
H        -3.20295233333391      -3.02118369874543      -0.37664046194236
H        -5.35058486240543      -1.68675985853894      -0.73481035731259
H        -4.13673720820497      -1.42213918806473      -2.00117297711393
H         0.51258519568662       0.42105335542184       1.43433983707280
H         0.83384423401705      -0.81272658816189       0.19124686914676
H        -0.98774211228641       2.22260835625184       1.81268979381213
H        -2.70220525810783       2.51082473782749       1.48542801011948
H        -2.21048621317317       1.83850913933793       3.04498311023104
H         1.64843985697955       2.14625075773952       0.03736232389929
H         2.02217596913679       0.92556540290065      -1.18839995890587
H         3.36750499973428      -0.37406478380833       0.48545695449291
H         2.96349321981605       0.81428256026444       1.73809643282362
H         4.50145453702080       1.43705373393239      -0.84780793143130
H         4.09393372714243       2.61111113074547       0.40993697493851
H         5.88218399034928       0.12435564829467       0.81684001130065
H         6.45637362149400       1.80433098048358       0.68352328046160
H         5.47259064235929       1.30818881831064       2.08148345667241
N        -2.47306702166487       4.88151796892114       0.33953567061514
S        -1.27719975090515       4.50320561511024      -0.66180695503902
S        -3.86354578766483       5.55248242528619      -0.15106016571850
C        -0.57590806794117       6.12132375692913      -1.39678285085625
C        -5.02630850662755       4.08085643068860      -0.41398880768199
O        -0.18260442131384       4.00016042067319       0.17759037505603
O        -1.65357114827225       3.69770045640141      -1.83021034628576
O        -3.81668980965217       6.20394909519286      -1.45290174267026
O        -4.46605015899899       6.20159991219029       1.00173316380279
F         0.75122725752794       5.93763887663819      -1.62202236438094
F        -0.72861341961175       7.15016640799495      -0.53757931498399
F        -1.16554444747482       6.42417239424922      -2.56556037364915
F        -6.30185774875114       4.51563798810832      -0.49353804165636
F        -4.95159507044792       3.19271256545778       0.62563198035130
F        -4.74066107364073       3.39717525156593      -1.55446283342847
