35
C9H20BF4N optimized with DFTB in AMS.
N         0.56398861074699      -0.25831759681218      -0.22251535445371
C        -0.24388167568837       0.32755558448293      -1.34683219902021
C        -0.12595820447964      -1.50458166649244       0.26491608162261
C        -1.67656902553320       0.63981186014323      -0.93989005990768
C        -1.58212617104970      -1.27844930045999       0.65523093998459
C         0.72926237096826       0.69133639232579       0.92862669897857
C         1.91071368336534      -0.61949111948355      -0.80602227153053
C        -2.37484803249253      -0.63878736490451      -0.48231473632426
C         1.25205686034872       2.07476196922046       0.56728586852810
C         2.76265370907640      -1.53535129914069       0.05707905448910
H        -0.24907919685474      -0.41857499093709      -2.14626333794065
H         0.27569416152654       1.21875208170470      -1.70267835346125
H         0.43521114381686      -1.87731585165987       1.12372865106528
H        -0.06768142585072      -2.22873565920996      -0.55012863090955
H        -2.18372939118305       1.04428893930522      -1.81981461012289
H        -1.71036231906092       1.40230927162629      -0.15495707392232
H        -1.65738616752458      -0.66698217087399       1.56074014926079
H        -2.00189969725252      -2.26090234769960       0.88770226533131
H        -0.24192905700311       0.79663287504322       1.41450901590557
H         1.41082727622016       0.21181348954529       1.63523339939325
H         1.71667858184256      -1.11728151519769      -1.75801795166523
H         2.43146657163506       0.31881499872095      -1.00603516420883
H        -3.38965816300116      -0.41316347249711      -0.14565741972859
H        -2.43111221492509      -1.33770480908911      -1.32114656362689
H         1.38683832409465       2.62676762565390       1.49768795578669
H         2.21207399725388       2.03262064490725       0.05632807040539
H         0.54449006521015       2.62312896520365      -0.05200524635936
H         3.75665101038021      -1.56721366976314      -0.38885710231659
H         2.85892661432260      -1.18574237805912       1.08469869223099
H         2.36051407798254      -2.54716566802770       0.05044225678574
B         0.29091588992535      -2.81072473406008      -2.98039204456544
F        -0.98376009146803      -2.48562536075670      -2.44446687899049
F         0.84314829632166      -1.60066377531260      -3.47457306408883
F         0.21302791261880      -3.76919303470068      -3.94120276452826
F         1.10196992661060      -3.21870709714507      -1.88548310169641
