49
C13H25F2N3O4S2 optimized with DFTB in AMS.
N         2.21879628786627       2.02627387370406       0.99795037097701
N         0.60839419676633       2.33226566573272      -0.39430313644668
C         3.48587323460056       1.54014127624545       1.53283197219250
C        -0.15854259936381       2.25574651423768      -1.63494805427137
C         3.34362236222848       0.07799118883570       1.97014307793919
C        -0.56714316712070       0.80565466488581      -1.90302177228972
C         2.97231354517873      -0.84041759377525       0.80217747603289
C        -1.45116847679727       0.22852960293459      -0.79519796791593
C         1.84241783577438       1.85885571073484      -0.26613497679394
C         1.19750826243968       2.60949558173227       1.69843273685213
C         0.17968897406769       2.80420173977784       0.81625965261516
C         2.92314334035493      -2.31062878155742       1.22668186416769
C        -1.75841608292417      -1.24921543483775      -1.05897026686623
C         2.48832779885974      -3.19227089127874       0.05741554330673
C        -2.61850208826692      -1.84646789145747       0.05273447290042
H         3.76123910565363       2.17230786121811       2.38028296491666
H         4.23569056163797       1.64191869304502       0.74344316681421
H         0.48482646304892       2.61741326186482      -2.44208864767445
H        -1.02923999046260       2.90782855671559      -1.53514910992953
H         2.58585602758357       0.00897391785524       2.75729873484971
H         4.30278480688941      -0.23155319766842       2.39488490045041
H        -1.09823121992716       0.78121869781274      -2.85806229144239
H         0.33549949117807       0.19858854516653      -2.00595852497765
H         3.69995562689213      -0.71774827034669      -0.00560700032100
H         1.99097406280740      -0.55222942436963       0.41090449830276
H        -2.38610472367444       0.79657643987114      -0.73265884313047
H        -0.93834361341878       0.32330562705307       0.16888643446414
H         2.43934809535699       1.42858007892679      -1.05027226873891
H         1.27786233115460       2.84284898319368       2.74565767038075
H        -0.79503655176142       3.23971816061208       0.94910214817826
H         2.21984810744323      -2.42929209070342       2.05857581091933
H         3.91241686490188      -2.62405510042053       1.57630914203709
H        -2.27836782934568      -1.34745592630768      -2.01725998958621
H        -0.81753301410743      -1.80506069307293      -1.12988118739635
H         3.17943321256875      -3.08339390590818      -0.77870397653671
H         1.49015877350497      -2.90993899889045      -0.28106362603273
H         2.46965751242382      -4.23839561869860       0.36309039117651
H        -3.57165810832527      -1.32060108009398       0.12454396016556
H        -2.10736139828314      -1.77151513557759       1.01387702070312
H        -2.81666011132004      -2.89822776792004      -0.15370575185464
N         4.06098174003952       1.35449271807888      -3.89145285319522
S         4.04354813331293       2.59764087997026      -2.91485111451974
S         2.94193206817409       0.25343604369301      -3.66505906771364
F         4.51646869273360       1.96669428804476      -1.45391360225296
F         1.53967498354721       1.01892425291467      -4.02074626428095
O         5.10079002698266       3.47802194981081      -3.26429566237302
O         2.75459096739633       3.15000706416449      -2.59426998125998
O         2.72611820531020      -0.16365530124783      -2.30165821899521
O         3.07330469462022      -0.74551940970004      -4.66507515394660
