61
C17H29F6N3O4S2 optimized with DFTB in AMS.
N         3.07561586785369      -0.65589047054717      -0.59055280982740
N         2.77312404445727      -2.03617057740743       1.03664490066443
C         1.65986797631908       0.59821505896120      -2.16220383500704
C         2.99041295589398       0.55418369906437      -1.40102070903358
C         1.24249140264521      -1.89239313813734       3.00494174657601
C         2.40727261250567      -2.61677070101045       2.32913388965624
C         0.45451852462855       0.69474390455028      -1.22493701014755
C        -0.05253540015192      -1.86069748177924       2.18448203574095
C        -0.86313328911896       0.60632538611440      -2.00010219784915
C        -0.65335297016649      -3.24751365907577       1.93613543489868
C         2.65031348992509      -0.76092241166780       0.66974751720012
C         3.45618052030663      -1.88951764426514      -1.04103918834011
C         3.27235059944572      -2.75683037415643      -0.01189887691606
C        -2.05903812500519       0.54252156865000      -1.04547351720395
C        -2.05367552636359      -3.12464250679473       1.32537624713385
C        -3.35160172722011       0.24617191800097      -1.80269931328121
C        -2.61207628996221      -4.48837386641174       0.92609881742746
H         1.68989755170214       1.46460722711326      -2.82899104274278
H         1.57604760965795      -0.30082388199495      -2.77631077535972
H         1.54351607993348      -0.86787382447582       3.24681474059818
H         1.06009093298665      -2.41129265422563       3.95131718226180
H         3.82942547357157       0.54497329456424      -2.10121063714233
H         3.08903667479607       1.41541361055509      -0.73395924668934
H         3.29199407731260      -2.57799503124211       2.97435781322206
H         2.15891987553532      -3.66346766850101       2.14555585762194
H         0.49990067465788       1.63027311489600      -0.65571962663676
H         0.49400140260393      -0.13555626124560      -0.51374355877536
H         0.13093494623850      -1.37664489141789       1.22131625858002
H        -0.77307369194232      -1.24416031772354       2.73214967543266
H        -0.96119235535039       1.46885759382326      -2.66771556048887
H        -0.85228093785637      -0.29656210233812      -2.61629371526369
H        -0.70727829893204      -3.80407418591312       2.87847910512448
H        -0.00963267325388      -3.80441030083542       1.25045500533229
H         2.30685220196539       0.05354416034207       1.28180799135839
H         3.79671662993418      -2.05838650287081      -2.04682828192918
H         3.42474899606053      -3.81946713036914       0.04001113164088
H        -1.88803330925945      -0.25051415664808      -0.30971672420827
H        -2.15088980534811       1.48991292386447      -0.50228868634597
H        -2.00435214906477      -2.48572451014376       0.43878891428408
H        -2.72411086469638      -2.64567212078428       2.04793802460755
H        -3.54296348942363       1.01389896072678      -2.55398261753941
H        -3.27838860001074      -0.72097229448218      -2.30083748821448
H        -4.19289468731169       0.21849445749404      -1.10967879838675
H        -3.62014474742941      -4.37303367969007       0.52750085573215
H        -2.65039630533491      -5.15781223167825       1.78694953424513
H        -1.98599761864377      -4.94196223473299       0.15759775800512
N        -0.26195709611002      -4.82712792841480      -1.78750834427207
S         1.14052503574767      -5.60729997901280      -1.71401197784704
S        -0.20152543931916      -3.24067500159751      -1.93226660120390
C         1.20194296153481      -6.25719833218685       0.04401110868640
C         0.57990987454269      -2.87832358236064      -3.60823293155612
O         1.05843941055773      -6.80303415015900      -2.50359560124818
O         2.32874735726098      -4.78366765085369      -1.82917127024943
O         0.65379642547738      -2.53594555026510      -0.98587086749480
O        -1.55526312025408      -2.76659278405834      -2.05404218886160
F        -0.01001564730395      -6.45129070791464       0.53763217648569
F         1.83149581287663      -5.37590511246133       0.83485363203887
F         1.87217890294340      -7.39358755920273       0.08946391272858
F        -0.08947951815567      -1.89865881197135      -4.20351582840203
F         0.56311366679143      -3.94134694795855      -4.38435006897051
F         1.84080914021939      -2.47256617833703      -3.45876171294933
