43
C13H24F3NO2 optimized with DFTB in AMS.
N        -0.85995754380968       0.17106784466710      -0.66132939539942
C        -0.97424452928316      -0.99522758048249      -1.60085023879165
C        -2.17203216663448       0.16222241228958       0.06053631515739
C         0.25231050040499      -0.05916732431642       0.32738260856267
C        -1.76989680649128      -2.05738170317049      -0.85059260868768
C        -2.51356797896255      -1.31046839310789       0.26779782720499
C        -0.68039395377527       1.44228064734999      -1.43963266077363
C         1.66081715083618       0.06514672105579      -0.25020235410680
C        -0.60705544072103       2.68562469400360      -0.56997341316045
C         2.67897059476534      -0.42206912603480       0.78628732343357
C         4.10715982111586      -0.28002270247761       0.24983703229381
C         5.13188032500219      -0.78489507314498       1.26299881371309
H        -1.50029189493533      -0.64956721400699      -2.49167729489403
H         0.01945751406246      -1.32622271505008      -1.89496481802517
H        -2.08980451886716       0.72118079321305       0.99268089861082
H        -2.90778035947380       0.64462193934668      -0.58717807583793
H         0.11496136006953       0.65760411107997       1.14165925733046
H         0.10425498362068      -1.06373400875446       0.73076512908768
H        -2.46560871275133      -2.55288032171646      -1.52966211946801
H        -1.10772053775117      -2.81776645935699      -0.43216118589568
H        -2.18056110820068      -1.64975111756650       1.25091496280187
H        -3.59285165216935      -1.45812253376995       0.20552443031975
H        -1.53257793438245       1.51247828287822      -2.11983058684521
H         0.22490252239575       1.32512083337694      -2.03985389556342
H         1.87476231295762       1.10516957618217      -0.50696117310805
H         1.75621503729960      -0.52868017349725      -1.15998295548545
H        -1.50375071888788       2.80908569239600       0.03686346234308
H         0.26349126791318       2.67293831500128       0.08326686988323
H        -0.52017372000135       3.54634380872970      -1.23269838159473
H         2.47962965173342      -1.47246795844015       1.02524989439022
H         2.57016819875132       0.15780700002192       1.71049476930702
H         4.20098882292228      -0.84834889998665      -0.67937924062483
H         4.30522763736690       0.77256933583717       0.02212785205579
H         6.13805691310132      -0.67254442462688       0.85938117424313
H         5.06529746345522      -0.21908287010478       2.19391505336143
H         4.96268429943410      -1.83953182191011       1.48481897422695
C         1.88658913001145      -0.47993458394159      -4.08059543173593
O         1.04440567079881      -0.01205467675923      -3.29812458645010
O         2.29630326608010      -0.14064158346534      -5.16519072664300
C         2.56977051348335      -1.83853465282066      -3.46611772830370
F         2.87258004857879      -2.77937345103731      -4.36486199129180
F         1.74324982627845      -2.43119060543799      -2.55252158809711
F         3.70529024285901      -1.55991176794511      -2.78432086254318
