56
C14H28F6N2O4S2 optimized with ForceField in AMS.
N         0.00036182592444       0.00072383851268      -0.00064472969654
C        -0.84604376548203       0.64110814337155       1.06762220011314
C        -0.84891733144190      -0.64125207856863      -1.06593458231765
C         0.85067109706399      -1.06498069712577       0.63887537409972
C         0.84548987707355       1.06811485009188      -0.64395780639583
C        -1.90991504178933      -0.27239867046952       1.72858602597145
C        -1.91648432247187       0.27017604522572      -1.72377044494166
C         1.91519868849823      -1.72340573712894      -0.27546273357007
C         1.91356379442619       1.73022421919690       0.26360128456215
C        -2.69723178588802       0.49691844427138       2.78751178379522
C        -2.70559522641417      -0.50081641944117      -2.78021518420288
C         2.70534925141318      -2.78066411754378       0.49333591799845
C         2.69605388481651       2.78582677616644      -0.51602824901192
H        -1.35917676695436       1.54497895536030       0.67010780526452
H        -0.20150808657627       1.00862457574576       1.89499531945640
H        -1.35869307768333      -1.54629999603374      -0.66684373736678
H        -0.20699355964691      -1.00711700990753      -1.89598732486117
H         0.20911881431501      -1.89455112845379       1.00655454066307
H         1.36351198051473      -0.66582041442825       1.54220674389552
H         0.20047763093386       1.89608681832764      -1.00896145278356
H         1.35469045108803       0.66973193969579      -1.54967505137185
H        -2.63454540355721      -0.65606517239306       0.98308562893341
H        -1.43249781219531      -1.13518335248932       2.23475042456676
H        -2.63933671737714       0.65283836693429      -0.97609562744283
H        -1.44217501897418       1.13352654957480      -2.23190939206502
H         1.43817862952664      -2.23080156571711      -1.13775791257735
H         2.63767674725942      -0.97613317887231      -0.65961348685051
H         1.44050151146196       2.23906007687730       1.12746873302209
H         2.63958790575024       0.98546446091614       0.64621935185974
H        -3.44962549365835      -0.17334342148539       3.25409790971994
H        -2.01503978255231       0.86870805347039       3.58195046482556
H        -3.22592679693339       1.35826502681624       2.32656173052585
H        -3.46064250734365       0.16795435150611      -3.24462835308307
H        -2.02520371406857      -0.87143605376132      -3.57678287373622
H        -3.23120414887886      -1.36312869455386      -2.31757855525405
H         3.45886689634734      -3.24499904328850      -0.17719048100513
H         3.23283108005566      -2.31877941645456       1.35492165685828
H         2.02529478644906      -3.57712586456201       0.86481959702634
H         3.45753547055032       3.25265960027697       0.14103296671100
H         3.21526597884574       2.32184615053758      -1.38123141221611
H         2.01228734815106       3.58158011399443      -0.88180040816185
N         4.43583849560716       6.84603415769920       2.90893174985298
S         5.69211307143795       5.88402952512207       2.48074101701498
S         4.41257587948892       7.70968231227781       4.30234964980720
C         5.39096966493090       4.22937796660617       3.06725822535724
C         4.87904730970728       9.39233411480438       3.95395089320777
O         5.80337852372127       5.85613404485417       0.98280453983309
O         6.97684809784799       6.39689920538465       3.06973228169999
O         5.36278422476754       7.12486303279010       5.31008089622128
O         3.01913703009127       7.70121644495780       4.86358424769979
F         6.42558895008222       3.40310516541268       2.67171013886883
F         4.20348170365530       3.76074816115794       2.54061834879062
F         5.30710376814149       4.23053427491463       4.44608113760706
F         4.87753092716642      10.12457121734905       5.12586820938355
F         3.97752017542740       9.94763059011605       3.06589603987097
F         6.14406502764886       9.41895890986155       3.39871886042811
