40
C12H22F3NO2 optimized with ADF in AMS.
N        -0.32900148057579       0.14445610789207      -0.24848570152158
C        -1.14574512100519      -0.44914181094051      -1.39056607403011
C        -1.39357270216140       0.80560946931300       0.59672756839279
C        -2.42761641081785      -0.96275764444417      -0.73686976561274
C        -2.58837022559354      -0.14867015891948       0.57414314360727
C         0.67290250930312       1.14860694720732      -0.77903903853553
C         0.34547868248928      -0.96065928737183       0.54552020525010
C         1.45379240765521       1.88581133475460       0.29276301503158
C         1.53449706524114      -1.60177401793045      -0.15391332642782
C         2.41200854065727       2.87383991937195      -0.37706527585331
C         1.92563748172199      -2.90475641461533       0.54138115567793
H        -1.30003991064864       0.37162279655268      -2.10952275963374
H        -0.52684718603282      -1.18486282998161      -1.91817744413790
H        -0.99485887775538       1.01578342056143       1.59704183390941
H        -1.62809765615650       1.75394055630538       0.09094248357075
H        -3.27552952888984      -0.81553199040723      -1.42141920811064
H        -2.37308834007941      -2.04084875074485      -0.52204577639888
H        -2.58830626202620      -0.80622122224393       1.45615079136307
H        -3.52587093243084       0.42463192627053       0.59994122139779
H         1.30868415066820       0.58488665428987      -1.48212136627997
H         0.09367847626689       1.83790772405278      -1.41229826962554
H         0.64193742667780      -0.52262720198618       1.51113360949168
H        -0.43496231032010      -1.71062249402167       0.74438988276146
H         0.77605706714123       2.43717715433976       0.96842936907522
H         2.03357143341095       1.18348406561992       0.91650322517302
H         2.39112473830523      -0.90849273859789      -0.14428636311502
H         1.31159670615626      -1.77963236966511      -1.21800048892442
H         3.12133637053425       2.34705305701649      -1.03322966706373
H         1.85977273293585       3.59654494863698      -0.99740996904194
H         2.98582296687628       3.43448001479187       0.37450269480553
H         2.18734272667187      -2.74243978562415       1.59949247520041
H         1.10567647702496      -3.63985134839173       0.50263548103353
H         2.79867486280512      -3.35095552031189       0.04333277699262
C         0.78626374527910       0.22548325635527      -3.98950750789652
O        -0.05982951788657       1.12549759888862      -3.76915721195884
O         1.28951656413001      -0.63685965215606      -3.21869720082271
C         1.28804878702188       0.18043652722668      -5.47363058925819
F         2.26005937784077      -0.75080022682589      -5.69998173423310
F         1.80318678644780       1.39085600720992      -5.86392320122539
F         0.25615262091759      -0.10987937757715      -6.33237216872655
