34
C12H19NO2 optimized with ForceField in AMS.
N         1.74041187183744      -0.02403681743511      -0.47922857363413
C        -0.64583205093453       0.00075421541405       0.11462151391601
C        -2.08088225350401      -0.01555766154515      -0.42337457804369
C         0.37750264642957      -0.05720563443771      -1.02396489899673
C        -3.09545134088299       0.04242414117445       0.72473651517104
C        -4.52745517437552       0.03771644553472       0.19824828333390
C         2.38010633582391      -1.19493722566263      -0.17477127941746
C         2.35300277391602       1.17915165322276      -0.25621069116818
C         3.66968810867377      -1.17930338520520       0.36223134076054
C         3.64268704329563       1.23013319708785       0.27792349584669
C         4.30238194135398       0.04201263283778       0.58884082046678
H        -0.49226317895576      -0.87285747792963       0.78560408304242
H        -0.48282070094616       0.92998519813828       0.70346682340896
H        -2.24359275973351      -0.94538017814380      -1.01201619664515
H        -2.23252674529627       0.85924393874272      -1.09361830952388
H         0.22395097716334      -0.98433445413167      -1.62059796371323
H         0.22198104454151       0.79965629317333      -1.71732144663298
H        -2.93503274843422       0.96739780948258       1.32061978601025
H        -2.95522397797081      -0.83499918506690       1.39321436822549
H        -4.70215147300981       0.92100666366774      -0.45232694783053
H        -5.23738991759938       0.07956286690851       1.05115325729726
H        -4.72266264795776      -0.88982871315879      -0.38093661774285
H         1.89234850661990      -2.14870449908176      -0.33949129558041
H         1.84340776011224       2.10761195993844      -0.48574232481589
H         4.17190018882200      -2.10721410334656       0.60346547244608
H         4.12371758930713       2.18373077869815       0.45263799482334
H         5.30025459695810       0.06755838652491       1.00765237928602
C         2.97189533647373       5.03795624327752      -1.95174799970580
C         2.51717891083169       4.26832294781958      -3.15131963812566
O         2.58780447702387       3.04990068167574      -3.15641497742539
O         2.07612928408661       4.85357091824774      -4.12740425745606
H         2.36650480926614       4.74469066632318      -1.06865662048742
H         4.04130388162932       4.81781286901078      -1.75080112775352
H         2.85613993343483       6.13036459224411      -2.11964509263585
