34
C8H18F6NP optimized with ForceField in AMS.
N         0.42851045214662       0.23767750326084       0.03701185877076
C        -0.53045677613664       1.27308937017162      -0.46304317313070
C        -0.07580606967545      -1.13296521262484      -0.28368689471097
C        -1.98605742806337       1.06269376053769      -0.00674846548006
C        -1.51444516247906      -1.38758401130642       0.19846907904899
C         1.72559197640593       0.47930714350088      -0.67769880942021
C        -2.46914864078978      -0.33882902968501      -0.35964698755768
C         0.63211399329156       0.39997430462750       1.50270282355256
C         2.89366868257432      -0.43844443439142      -0.27344923815383
H        -0.53879147576472       1.28183196846569      -1.57817715763093
H        -0.20823333300405       2.28963637525062      -0.14111429329275
H         0.56530792063683      -1.91161029999606       0.18306026929824
H        -0.04919244844976      -1.30526963166905      -1.38443652318775
H        -2.63563946850304       1.80204857725723      -0.52252191996219
H        -2.09764418668688       1.24595265198613       1.08199363822002
H        -1.55989140756515      -1.39461907895331       1.30872373969075
H        -1.84268139548038      -2.39051143753140      -0.15074759321739
H         1.58573375978222       0.36347727264239      -1.77734809965313
H         2.06251062972800       1.52936060653388      -0.51689108874960
H        -3.48476165549619      -0.49886577987725       0.06339047985627
H        -2.53323759996828      -0.44367424340822      -1.46475724948472
H        -0.32161766119536       0.39554173738029       2.06400077694686
H         1.23614127424339      -0.43132584670258       1.92458644972569
H         1.14524077282772       1.36047125499302       1.73128680052540
H         3.77840595764007      -0.18628428715000      -0.89474433735937
H         3.18389465192193      -0.28659935775584       0.78551834285549
H         2.66061365344334      -1.50460251054609      -0.45747955013601
P         2.07009302189887      -4.64085466458258      -2.79612470421122
F         0.40362602375014      -4.22907317460073      -2.86691106951157
F         1.71695330790884      -6.14880538122110      -2.05255898768180
F         1.94967396366330      -5.42803222842169      -4.31852578870876
F         3.75761433897849      -4.96199958413232      -2.76229061247585
F         2.42264074851593      -3.12902487687631      -3.53241898092081
F         2.17184500940061      -3.96446695247556      -1.22120298005372
