58
C16H36BF4N optimized with ForceField in AMS.
N         0.00030601534497      -0.00072786221538       0.00183599071160
C         0.84323248423311      -1.02741479033539       0.70829212578206
C        -0.87143093426615       0.68503653302760       1.01921072460260
C        -0.82371292977906      -0.69760247728970      -1.04686825699761
C         0.85272250305443       1.03799393289180      -0.67418482682997
C         1.89037003229653      -0.47703215269120       1.71020221611239
C        -1.93524851958436       1.66360471498321       0.45782659599657
C        -1.89070542034843      -1.69281075171163      -0.52416644672391
C         1.93789685607517       0.50573118743137      -1.64476049999467
C         2.65397202657009      -1.63400678203723       2.36744951059805
C        -2.73341015093820       2.29519598701400       1.60585327011358
C        -2.63659386111462      -2.33730293094390      -1.69967160536514
C         2.71401452761480       1.67446613219960      -2.26628694969672
C         3.69299022016965      -1.12429992583902       3.36052958196831
C        -3.78481662434482       3.26976190901069       1.08558178873654
C        -3.69040982516071      -3.32748235303636      -1.21521682470813
C         3.78225572726559       1.18097939225853      -3.23651170392568
H         1.37098134259692      -1.67093220026023      -0.02964250467498
H         0.19373646306588      -1.71468217783690       1.29095106759274
H        -0.24435426315088       1.28202144300336       1.71491674537272
H        -1.38920021292542      -0.06565810200320       1.65598753650616
H        -0.16296066473614      -1.28353764227435      -1.72041880532134
H        -1.33010983047633       0.04601148599807      -1.70104481769991
H         1.34607852352005       1.68903720283960       0.08100394320775
H         0.21171792149970       1.71164146601951      -1.27827692812075
H         1.39537999529572       0.10287741318350       2.51490027658456
H         2.62469938048687       0.17901224546458       1.20019226411203
H        -2.64645678507714       1.13958664575157      -0.21236602519577
H        -1.45165077257036       2.48367883246497      -0.10950470455840
H        -2.63361498803294      -1.18001542187016       0.11981620763776
H        -1.41384429479548      -2.50493039059149       0.06053724420825
H         1.47367036344362      -0.06900460209946      -2.47124081563669
H         2.65981199206704      -0.15012748542567      -1.11737322838060
H         3.16811333052434      -2.23534750614857       1.58652462082906
H         1.94014838338857      -2.29468943785523       2.90659063576638
H        -2.04353518365550       2.84427253312851       2.28350686966774
H        -3.24124644527606       1.49844699949124       2.19167755405839
H        -1.91413449963450      -2.87639977202143      -2.35095316091129
H        -3.13503578494803      -1.54924453865045      -2.30494723876666
H         3.20329810476546       2.26874072666947      -1.46426061201198
H         2.01306134641036       2.33869441094645      -2.81766706457031
H         3.20191026447121      -0.54165771819414       4.16864671089333
H         4.43785410114521      -0.48271770252174       2.84405480766614
H         4.22213321607781      -1.98747807811826       3.81677609294649
H        -4.50689236012269       2.74288994093754       0.42672987784436
H        -3.30201204094297       4.09312247586374       0.51812961606317
H        -4.33881732681139       3.70739809523166       1.94281964519988
H        -4.44320540292817      -2.81083202372886      -0.58309105188392
H        -3.21441823271174      -4.14239600028814      -0.62947874198844
H        -4.20707898084833      -3.77484579919115      -2.09046942730019
H         3.31584167148718       0.60696545100400      -4.06521573620197
H         4.51479373359071       0.53512262429504      -2.70789825838707
H         4.32075492212104       2.05135329421148      -3.66744515935099
B        -0.25274090584099       5.53891191985284      -1.33986552686202
F        -0.99232328566964       5.54410133381329      -0.12754639982230
F        -1.07071213578775       6.01874101753395      -2.39691362731147
F         0.16773779686350       4.21683419111617      -1.63294503880037
F         0.88636615403326       6.37579781514189      -1.20406105187937
