52
C16H30F3NO2 optimized with DFTB in AMS.
N         0.43803568332764       1.07674699342910       0.22358543093711
C         0.97733783281361       1.64500876175678       1.50734405376081
C        -0.59418107608110       2.08238074276607      -0.18101387950809
C         1.51173281770570       0.99042170717883      -0.82104367742639
C        -0.18830064774737      -0.25988938802441       0.50951173828085
C        -0.22314662674871       2.27484237347114       2.20993202932683
C        -1.28511990909000       2.47847704564156       1.11952188405054
C         2.68349070297168       0.07226201013945      -0.44604772055852
C        -0.95760980526312      -0.88598340255469      -0.64934842049733
C         2.65755277863407      -1.27662711134226      -1.17346295099719
C        -1.23526676365401      -2.35755179782072      -0.31143838308375
C         3.82779008765850      -2.15479575429325      -0.71809215418267
C        -2.01838713122030      -3.04446954036786      -1.43292563417228
C         3.79582974605941      -3.51547922423548      -1.40952939495956
C        -2.26744102403049      -4.51604247347622      -1.10784313996493
H         1.73103457729495       2.39189292973638       1.24805038121449
H         1.42655129189831       0.84810658158827       2.10030375209516
H        -1.26195186094987       1.65431218115213      -0.92700631421085
H        -0.06937172631693       2.93588389018436      -0.61769044796201
H         1.87284576229144       2.01177273319584      -0.96734628867364
H         1.03712644069142       0.66583542019041      -1.75005786350100
H        -0.85094401431720      -0.12590090173408       1.36429837441085
H         0.62078471165813      -0.91545535405311       0.82551842958726
H         0.06625078118803       3.22158837925221       2.66903358864684
H        -0.58846310173516       1.60818129712484       2.99346941522931
H        -2.15575311123333       1.84526538357480       1.30149502772518
H        -1.62340219695933       3.51447697179157       1.06526596860654
H         2.70176408361624      -0.10292199096962       0.62970853471895
H         3.60980593883481       0.59381517807718      -0.70484709157687
H        -0.38866406055300      -0.83333559920044      -1.58159781655314
H        -1.90885860394981      -0.36798002698026      -0.80552563724032
H         2.71118709732515      -1.11176642155913      -2.25524375460577
H         1.72143301703587      -1.79893315805029      -0.96008744758920
H        -1.80154737280236      -2.41303128450507       0.62324802956750
H        -0.28521442959113      -2.87861320554566      -0.15604354768915
H         3.76823292412682      -2.29400473598114       0.36550061609111
H         4.77301295376273      -1.64937088431714      -0.94262189525463
H        -1.45609739617827      -2.96692918325274      -2.37007040055881
H        -2.97695462858224      -2.53367933511827      -1.57532421701789
H         4.62915925853930      -4.12677066389330      -1.06361877219478
H         2.86524520189558      -4.03666537489960      -1.18131336077824
H         3.87414954865899      -3.40036331574585      -2.49179083644823
H        -2.83602041748172      -4.98472020459401      -1.91107841572908
H        -1.32139055476579      -5.04639821844287      -0.99404228688616
H        -2.83186870770600      -4.61157366957620      -0.17969174704248
C         0.67995221857887      -1.47338689669878       3.86575959637249
O         0.44145493589550      -2.09530875272623       4.87133986697224
O         0.17044759151883      -0.49897233274980       3.30105309128056
C         1.97118912142497      -2.01783787504241       2.98862123183678
F         1.55539844174695      -2.57134120384182       1.81048771902033
F         2.76921200494750      -2.91407102301359       3.56715488706669
F         2.76584159775628      -0.97239287484459       2.61208571916454
