54
C14H26F6N2O4S2 optimized with ForceField in AMS.
N         0.97845931357595      -0.31442151224160      -0.00347714210141
C         2.05349164715645       0.06051562909350      -0.97365498712821
C         1.64157789909330      -1.23775226851244       0.96788918882596
C         0.48977869375370       0.90121503702104       0.72590658962503
C        -0.11856631226101      -1.02960017808764      -0.73293877043880
C         3.25690880099640      -0.82546170460346      -0.71361449146878
C         3.13900071718331      -1.15920382207427       0.74634831991656
C        -0.24504855690630       1.93649795546108      -0.15945806990439
C        -1.30543224633478      -1.47132363321028       0.15621937519328
C        -0.56850926992746       3.20274025996691       0.64467698856112
C        -2.30354339003583      -2.30972351300500      -0.65294958255896
C        -1.30508877136993       4.23136249016581      -0.20867707790345
C        -3.48786680082243      -2.74521230977993       0.20502217937974
H         2.39292695925716       1.11353001038634      -0.84165033589119
H         1.73955282979672      -0.03595274253877      -2.03840900340654
H         1.34799930477917      -2.30041353657696       0.80573449636073
H         1.40337525083118      -1.00457160756138       2.03107740724102
H        -0.19037460647156       0.60972732917288       1.55667517603159
H         1.35293486627004       1.40901231105433       1.21649572580502
H        -0.51509162416833      -0.39608576584520      -1.55702724348699
H         0.29937777329203      -1.93458031149206      -1.23289097110239
H         3.18107102176066      -1.75509614012403      -1.32009198361637
H         4.21292918944245      -0.30904956784275      -0.94485122307681
H         3.56703038035897      -0.33701779396931       1.36122199297434
H         3.64946452428134      -2.11583654295816       0.99173982474816
H         0.37791692274996       2.21497576959250      -1.03520850711328
H        -1.19974668862104       1.51005553477426      -0.53167522584502
H        -0.94546188491384      -2.07267042064405       1.01735316684324
H        -1.83919937073067      -0.58171974540652       0.55019212277213
H         0.37213096077349       3.65948281145233       1.02271508176826
H        -1.20584957907691       2.93865250318917       1.51681385871555
H        -2.68291222183463      -1.71319167090356      -1.51129764694317
H        -1.79795832249113      -3.21631585646543      -1.05156198818120
H        -2.26077891721147       3.80847180494771      -0.58520721727363
H        -0.67505547851849       4.54113026330840      -1.06948019923616
H        -1.53208481461265       5.12811143925723       0.40564762864463
H        -4.02340240809127      -1.85744230476693       0.60378235697381
H        -3.14040210924095      -3.37609736280374       1.05069637830316
H        -4.19491965177794      -3.33789455197556      -0.41284370065244
N         8.32616165994975      -0.64876404109415      -0.16602128430380
S         8.15913936764916       0.09957268695507       1.28268069890957
S         9.47946837412494      -0.23077953107208      -1.25366078963111
C         7.01105492401766       1.45126781090668       1.11752392190234
C        10.85958449358067      -1.34614005222094      -1.10007756023106
O         7.61401874441514      -0.88032045270909       2.28233792395295
O         9.48308510486211       0.62488943716025       1.76422289148154
O         9.94721679871277       1.17942680891299      -1.02254559038927
O         8.91377729460925      -0.35086623897016      -2.64008453836990
F         6.83600561221450       2.06200614380572       2.34458085610777
F         5.79693505073532       0.97160862356401       0.66973628220180
F         7.49901142934332       2.37328105768413       0.21153486896989
F        11.84239706490066      -0.99165593268942      -2.00477298252137
F        10.44093934186929      -2.63722305214314      -1.36086431253237
F        11.37203307168180      -1.28124059894433       0.18180363769885
