46
C14H30ClN optimized with ADF in AMS.
N        -0.23593026196491       1.49992992697171       0.13132173473189
C         0.20535999874226       2.52938799105087       1.14452791886241
C        -0.92293355051321       2.35080953085402      -0.92935440475245
C         0.96704944905505       0.80620850337266      -0.49755983958288
C        -1.19782276030666       0.51755278916416       0.75501786808301
C         0.68882319209132       3.72236598470273       0.31714376399875
C        -0.03905484765584       3.58702501664357      -1.04713944890354
C         1.67536350794598      -0.19216809477911       0.39764815774829
C        -1.71338220681841      -0.54863151573998      -0.19230230662539
C         2.86929966724716      -0.78928071037696      -0.35431729136489
C        -2.77491084811257      -1.40523476991497       0.49672397325652
C         3.63236765042247      -1.81451666579437       0.48266340481434
C        -3.32852090512781      -2.48433566153291      -0.43377040517286
C         4.81391310466634      -2.42667680369668      -0.26565819771921
C        -4.38100513775342      -3.36024547296203       0.23915491527923
H         0.95811435930650       2.08952899631551       1.81096307464451
H        -0.68801116400327       2.78651906226307       1.73340704194913
H        -1.91503842849146       2.59391692975312      -0.51745872011110
H        -1.00069866779503       1.74623265045364      -1.86796207018315
H         1.65582066384513       1.61266892698590      -0.78728444900372
H         0.58633835286511       0.35118342043580      -1.44512184701984
H        -2.03073534489616       1.13082642661677       1.13738146521145
H        -0.68028211930133       0.07628311058130       1.62174303839480
H         1.78075675260591       3.69867812917770       0.18941683555503
H         0.44394169269784       4.66129586011357       0.83397429574508
H        -0.64946291076403       4.46981869024600      -1.28313397991729
H         0.67732099523322       3.45768097426069      -1.87182229826658
H         0.99736119735933      -1.01648779456162       0.67598333836791
H         2.03447029983348       0.26690380798231       1.33817526719162
H        -0.88963449491299      -1.18861784159556      -0.54587022147526
H        -2.11368455446492      -0.09381470858344      -1.11401910394702
H         3.55798118465982       0.02035683741115      -0.66113269250092
H         2.50537127589058      -1.25665944085911      -1.28701944027847
H        -3.60774973375615      -0.76388116990570       0.84511892347201
H        -2.34990981735683      -1.88387455782595       1.40090128925973
H         2.93720792342035      -2.61566957281593       0.79505476828882
H         3.99051901301139      -1.33254812384368       1.41160821636367
H        -2.49356850862654      -3.10969827206434      -0.79656371041404
H        -3.75383703400764      -1.99982344333427      -1.33019812215440
H         5.34788092471894      -3.15945851046821       0.35913108641305
H         4.47673106693499      -2.94178586559098      -1.17866382807398
H         5.53532853513356      -1.65027030544123      -0.56696996617202
H        -4.76624682341602      -4.12583125064719      -0.45231589264813
H        -3.96274859545379      -3.87978645639252       1.11672332973494
H        -5.23729205627620      -2.75797050566799       0.58338832669893
Cl       -0.54603199771157       0.19019186003845      -3.35159707007801
