40
C12H22F3NO2 optimized with DFTB in AMS.
N        -0.06715908101943      -0.16823968061118       0.08184584520808
C        -0.51137280413323      -0.63327296628962      -1.27405625961549
C        -1.35499225161713       0.05910261895462       0.80853957127767
C        -1.75779939931678       0.18640705903042      -1.59047055308561
C        -2.30577792183622       0.64883525988730      -0.23019802823254
C         0.69796331966216       1.11622914408447      -0.08013016048357
C         0.73454728482207      -1.22709600783177       0.77908253849855
C         1.24796020281286       1.71903218864975       1.20923605572788
C         2.07158341376210      -1.53830478102839       0.10799299117803
C         2.10558192426711       2.93121487640378       0.84409154484520
C         2.72332793352998      -2.73286555273828       0.80005437191264
H         0.30256874884107      -0.48301884594939      -1.98845653514616
H        -0.74852657141679      -1.69687118850713      -1.20006058535567
H        -1.71424282045966      -0.91165285538019       1.15857240090854
H        -1.18697764909772       0.70894410648746       1.66670808455229
H        -1.50835110685966       1.04467593058993      -2.21728465537168
H        -2.48397407397828      -0.42529638106093      -2.12816466665968
H        -3.32026273265200       0.28504007651965      -0.05804189898965
H        -2.32186006645829       1.73878181591496      -0.16781184066141
H         1.52921553227401       0.90168468616719      -0.75521243442569
H         0.02747589146164       1.82643531606677      -0.56738158260630
H         0.88523789470763      -0.89513036825925       1.80949233009929
H         0.10912632404005      -2.12517109527977       0.80058189791513
H         0.43729240365722       2.02159576668624       1.88034515879032
H         1.87512085922817       0.99477429213258       1.73480037827558
H         2.73972899629719      -0.67624177561268       0.16751013105777
H         1.91589463523952      -1.76457326143737      -0.94894725996886
H         2.92463427111745       2.62061387018761       0.19421649945032
H         1.50830065980563       3.68119321227008       0.32446973080489
H         2.51972640336108       3.37615946266802       1.74833253230937
H         2.89272139303012      -2.52181699785567       1.85704051471093
H         2.09440242739306      -3.62079550839870       0.71733451663355
H         3.68304941782921      -2.94156719736104       0.32939564473539
C         3.14114793813343       0.43700916864848      -2.42664845213035
O         3.47888358907979       0.92040990908972      -1.34503622038599
O         2.11680087212388      -0.18385799434921      -2.73337341337293
C         4.16870219796280       0.64711658453343      -3.63401384128533
F         4.43658165477574      -0.50713422737878      -4.26811571469805
F         5.34245530509139       1.15786340692685      -3.23626757798379
F         3.66570355233886       1.49223988043006      -4.55502096283267
