40
C10H19F2N3O4S2 optimized with DFTB in AMS.
N         1.84766431907433      -1.42786487629904      -0.46749614362555
N         3.01768197324190       0.27066230654118      -1.07518926110444
C        -0.42114525168806      -2.01396490723437       0.27353166418773
C        -1.11281869123045      -0.84500389997033      -0.43408432942997
C         0.83447500423427      -2.47610216286495      -0.47008148027845
C        -2.39624828322523      -0.43552361617901       0.29472881949105
C        -3.07939363234521       0.74017618352094      -0.41112660603082
C         1.99814174996304      -0.50970311945977      -1.41864004294772
C         2.79212187245668      -1.22998883718459       0.50345772561047
C        -4.36081403247266       1.15373796400081       0.31017913531268
C         3.53721589820569      -0.16174908139475       0.11343384061066
C         3.58989590057399       1.29382321978818      -1.93498753879486
H        -0.15295422540829      -1.72712677495578       1.29528726054829
H        -1.10430340300752      -2.86618797808025       0.32964866515438
H        -1.35087062398265      -1.13348586585814      -1.46304990264542
H        -0.43068410431472       0.01112292788065      -0.47585934441631
H         0.60599230893900      -2.71352481859641      -1.51187341183230
H         1.26412131584451      -3.35625347811726       0.01434058903148
H        -3.08144869945420      -1.28911622241505       0.33206998762979
H        -2.15537485968019      -0.15507949477110       1.32610628301610
H        -2.39085013641624       1.59116601313415      -0.44845936644674
H        -3.31638500383303       0.45645705124711      -1.44173850553078
H         1.42057145865712      -0.42732007255099      -2.32397805019242
H         2.86275310058323      -1.86031820971221       1.37246027814379
H         4.38124535615077       0.31643302998135       0.57874246271647
H        -4.14212877406356       1.45923017332849       1.33442728787448
H        -4.82778753639585       1.99023464561252      -0.20976902657344
H        -5.06812176972633       0.32380607179499       0.33903650917393
H         4.27870999452552       0.81030193248028      -2.62986145892192
H         2.79000686515742       1.76971389265166      -2.49912267233037
H         4.11680345255014       2.02443924844574      -1.32451349273592
N         2.65757043102747      -1.39839512179154      -5.50375720044089
S         2.95000076509977      -2.22808126829184      -4.19296861052466
S         2.37148905760286       0.15236872695462      -5.30893355127288
F         1.45367708569699      -2.37003576877219      -3.48138688460874
F         3.82998247559568       0.76585850924119      -4.89489574568000
O         3.27639634896665      -3.56485663271226      -4.54562098241452
O         3.70705419950043      -1.57706544854066      -3.15723611321122
O         1.54869643597297       0.51903628451664      -4.18453941644524
O         2.08844391042381       0.72614403103201      -6.57604492226576
