41
C11H24BF4N optimized with ADF in AMS.
N        -0.33083322168350       0.22870362336423      -0.24859378854141
C        -1.23724925137255       0.82351147090615      -1.31922715921909
C        -0.62101333004818      -1.26557888195592      -0.14989533419125
C         1.09836189809420       0.42819801336642      -0.73507977718137
C        -0.54536782132516       0.86901045508933       1.10361875250777
C        -2.71025615448606       0.56181182253855      -1.06023223245426
C        -2.09078218073147      -1.57538729788888       0.09193965639542
C        -2.98627988597690      -0.93873045652849      -0.96935243570946
C         2.18829797155568      -0.06871215964411       0.19815058760184
C        -0.26184826808746       2.35696476290753       1.16184307369630
C         3.50926953150460      -0.16519923728925      -0.57375673531963
C         4.66114306160245      -0.63069838115840       0.31050747423436
H        -0.91677059436540       0.35371396769199      -2.26241318630109
H        -1.00255758863470       1.89513845638120      -1.37308168408312
H         0.00363088612305      -1.65351398453076       0.66529519551079
H        -0.28197177528693      -1.69729038458465      -1.10377365876073
H         1.20639865324544       1.50418515000944      -0.93619878705969
H         1.15080962780840      -0.09665785085436      -1.69833760735910
H        -1.58481115225170       0.66663776772402       1.38847970626478
H         0.10372084306661       0.32020265603665       1.80162526616781
H        -3.26245793120597       1.00289526199081      -1.90640907469556
H        -3.06012408570385       1.08591641358911      -0.15224355125121
H        -2.40318782111863      -1.26985832707170       1.10664570675266
H        -2.18119072948824      -2.67391682427201       0.05863564460561
H        -4.04670086100289      -1.12353545931192      -0.73591045803377
H        -2.76067300790214      -1.39866293158135      -1.94521824340134
H         1.94977303359795      -1.07430746774035       0.57990672665057
H         2.31306847755090       0.59737156413123       1.07084386456153
H        -0.46416297461580       2.70061201407768       2.18741537800355
H         0.78628793713360       2.59332307646545       0.93351804356318
H        -0.91130847497986       2.93351618395051       0.48891819878552
H         3.74955604498947       0.81714208296914      -1.01825604638607
H         3.36473531310070      -0.86513029293674      -1.41397143387145
H         4.44853163274191      -1.62101186554511       0.74435955050435
H         4.84060697676255       0.07129632528815       1.14105101465249
H         5.59179213896499      -0.71304345972828      -0.27011610887388
B         0.40629487249048      -1.56262084327267      -3.71823710171852
F        -0.94361698638277      -1.81383783030218      -3.29096700886757
F         1.28171747435028      -2.03277759404472      -2.67350652994149
F         0.57084875905313      -0.13756746504894      -3.81129741968540
F         0.68158872041378      -2.18972130318679      -4.92746793585208
