34
C8H18F6NP optimized with ForceField in AMS.
N         0.42691082443920       0.24262730790920       0.04156865383317
C        -0.53106898850618       1.28069022618496      -0.45478990783606
C        -0.07954128303154      -1.12642993137949      -0.28207133939368
C        -1.98723752521893       1.07030973348879       0.00031565299503
C        -1.51867641900360      -1.38019328302986       0.19992887420049
C         1.72392748030645       0.48581693973710      -0.67267155359815
C        -2.47154609849211      -0.32948468126138      -0.35706478487460
C         0.63167401882904       0.40013128861245       1.50759778007810
C         2.88311705572471      -0.45234018928249      -0.29192807090001
H        -0.53993514034496       1.29314949807174      -1.56990633920957
H        -0.20724266750937       2.29586471462763      -0.12981237898468
H         0.56114030505308      -1.90726791364803       0.18262545462236
H        -0.05361918327066      -1.29535406897292      -1.38321454805206
H        -2.63552429434060       1.81202835160453      -0.51379004667220
H        -2.09893662744158       1.25036830174427       1.08949665848670
H        -1.56434001865994      -1.38883628616674       1.31020128511622
H        -1.84816848492232      -2.38241493507896      -0.15050788752669
H         1.57998053029281       0.39138182375983      -1.77369399314502
H         2.07091605593143       1.52943610037894      -0.49351970654152
H        -3.48793165631452      -0.48958778867984       0.06363426772982
H        -2.53381083727128      -0.43159462494088      -1.46257006799499
H        -0.32199793462574       0.39703817489041       2.06914573377883
H         1.23294957795628      -0.43415466725179       1.92725983500190
H         1.14764210076109       1.35839638762842       1.73894560738299
H         3.77557072925001      -0.18189220933545      -0.89436339780808
H         3.16446985816486      -0.34597569804571       0.77483542781432
H         2.64323720839757      -1.50764323664349      -0.52442730309848
P         3.83558752451337      -5.51940179929778      -0.20031990313152
F         3.11788606125116      -3.98574672426321       0.08220233596934
F         2.27008493278894      -6.17649931449929      -0.46259606187358
F         3.96200647061829      -5.18335904287798      -1.88047796938417
F         4.51716499296129      -7.08069131320429      -0.42171421939793
F         5.39940530166245      -4.84018471483200       0.01151636279232
F         3.73051041425132      -5.83376041144668       1.48531391832142
