43
C11H24F6NP optimized with ForceField in AMS.
N        -0.83921913259971      -0.20544325971685       0.02927090695506
C        -1.17461264849348      -1.24454936168342      -0.99312627002224
C        -1.97362727059434      -0.23961995743113       1.00282257447316
C         0.43356083069792      -0.56675070270290       0.73542517618870
C        -2.59689874492564      -1.71346023007957      -0.75010941976515
C        -2.80854490513498      -1.47254855409691       0.71728644744910
C        -0.76612260062678       1.13864218955178      -0.63080206262360
C         1.69805174629867      -0.53233364694149      -0.15729854516503
C        -0.40340829965860       2.30283363948134       0.32228009729097
C         2.91391916597159      -1.07591789633747       0.60294902961224
C        -0.49580013791910       3.64511876693834      -0.39794100671035
C         4.17357382164255      -1.02763247086226      -0.25639084619261
H        -1.07402135375638      -0.87987596386816      -2.04109684390173
H        -0.52086455498995      -2.14325184421532      -0.91273663410943
H        -1.64184337230673      -0.24649924448601       2.06635572276523
H        -2.64989945808454       0.63934578318982       0.89292532331561
H         0.33764270489428      -1.58829549689063       1.17185934617836
H         0.60336532903312       0.10726481396119       1.60389931043112
H        -3.30595006023013      -1.09280464542096      -1.34160566687246
H        -2.73243033493551      -2.78627651375587      -1.00956001850427
H        -2.42116722753690      -2.33543077696193       1.30288864695988
H        -3.88352963222971      -1.31190702724687       0.95253163881595
H        -0.02891239290050       1.12505884035202      -1.46366196310892
H        -1.74576622121981       1.36961937893188      -1.11078616422933
H         1.54609556732284      -1.13853044945673      -1.07471431354204
H         1.92033424716031       0.51084185804054      -0.46405122666630
H        -1.08491298684636       2.32630761486309       1.19763970596303
H         0.63532593340513       2.19261507264962       0.69550432455948
H         3.08337390680633      -0.47071097181003       1.52004811145534
H         2.72773156732175      -2.12913576215337       0.90574367643621
H         0.21132118530175       3.67101750069566      -1.25423535514152
H        -1.52855944369922       3.81529375287743      -0.76934772643723
H        -0.23250807354486       4.46393553927459       0.30431201970860
H         5.02952230868676      -1.43257986316068       0.32173580021227
H         4.04166009555509      -1.64283368907300      -1.17160609200328
H         4.40464004340547       0.01952294144315      -0.54589505112288
P         7.55355813737105      -0.92998537911623       3.10065477213881
F         8.50028909448129       0.24842374818638       2.28381886013341
F         6.17231275015871       0.05511156763293       2.82756026072334
F         7.33235953245488      -1.76466696748832       1.61578518271299
F         6.51289955726741      -2.03627021268161       3.90398241923279
F         8.91455868087004      -1.94148253249153       3.37784841660604
F         7.90603151742627      -0.15362343144051       4.59237917440068
