47
C13H25F6N2P optimized with ForceField in AMS.
N         1.36008007943805       2.27430775985736       0.05164052928834
N        -0.84338256580439       2.43392286504320      -0.21316868267161
C         2.74230098090766       1.86796524698495      -0.19562602172139
C        -2.17630994489991       2.23555711520057      -0.78211718058939
C         3.01605001659574       0.46383526343076       0.36389682194674
C        -2.41594678077945       0.75612687713367      -1.12111236522440
C         2.08185989108285      -0.59209579856518      -0.24757380795991
C        -2.34699809511733      -0.13599810072588       0.12748896713365
C         0.33450337892907       2.18414790625175      -0.81804315029544
C         0.81492761497642       2.59979874089134       1.24071728033645
C        -0.55126772741083       2.70735583028154       1.07473507568902
C         2.43255887817828      -2.00025877860715       0.24235019761728
C        -2.54732045697922      -1.61100770324759      -0.23426550638663
C         1.45082868963780      -3.03049533490928      -0.30977590646734
C        -2.46847491069748      -2.49589609283993       1.00718127639188
H         3.43275413493463       2.59745101214448       0.28020729521311
H         2.94718700014164       1.87597321952472      -1.28671520496313
H        -2.27370725060752       2.84477957995582      -1.70597062668597
H        -2.95361789656959       2.58132223772444      -0.06542067569295
H         2.89343455143026       0.47680269804464       1.46887283816861
H         4.07167254547868       0.19642760426455       0.13926510656455
H        -3.42005412707826       0.65662606000202      -1.58718553259442
H        -1.66228121855121       0.42035072482216      -1.86644693588462
H         2.15638729801121      -0.55812446452672      -1.35693241374009
H         1.03380905469641      -0.36791398094841       0.04321181040407
H        -3.13158053628895       0.17989600526562       0.84934307139277
H        -1.35553361367862      -0.02204898155532       0.61545331164346
H         0.43436790427253       1.85548587181344      -1.84512665415268
H         1.36234937067148       2.68801435565342       2.17003552036850
H        -1.28291015166267       2.89451099296588       1.84985707542903
H         2.39716422604640      -2.03096112232638       1.35305546714432
H         3.46010506205985      -2.26757334945711      -0.08685612670852
H        -3.54067325375191      -1.74995017720521      -0.71376925238170
H        -1.76189860995529      -1.92898549160468      -0.95398058413709
H         1.47456174223612      -3.03315802686697      -1.42038493662980
H         0.42064625054808      -2.79935932376256       0.03109247700949
H         1.72478654403315      -4.04172718797924       0.05671211165795
H        -3.29025359079831      -2.24547186025419       1.71128605701356
H        -1.49426714343377      -2.35720612637399       1.52297199405783
H        -2.56439857910889      -3.56152244940042       0.71081851954273
P         5.41663905540783       2.96762563835129      -4.28701857045567
F         4.66536680373728       4.45682779512655      -3.87610294532742
F         4.54202012673430       2.92536583812396      -5.76463336234489
F         6.68759579515565       3.79470298774679      -5.09407719394819
F         6.18126641816043       1.47261275433563      -4.64831822730211
F         6.26196784420292       3.02896052789279      -2.79272665761333
F         4.13029165626886       2.09604258112285      -3.55788106493466
