23
C7H12N2O2 optimized with ForceField in AMS.
N         1.11668810552370       0.01604719407470      -0.02326061367464
N        -1.10471694552770      -0.00902143696119       0.01459744083653
C         0.01389791567266      -0.75754949266923      -0.04345495647634
C         0.68296025683323       1.28967128294381       0.05001116873957
C        -0.69735941192187       1.27412825825038       0.07280180832336
C         2.50400347101002      -0.42742572829096      -0.06205068721390
C        -2.48235684034897      -0.48370790512824       0.02100345201215
H         0.02518235350810      -1.83934009995109      -0.09553266176408
H         1.32079448138675       2.16340240752047       0.08537099637191
H        -1.35298565546657       2.13338812099636       0.12959511100230
H         2.55702527930966      -1.53433139332002      -0.14017266543847
H         3.01506140494847       0.02004775121865      -0.94024250951899
H         3.02210260404489      -0.10830526577450       0.86597848237100
H        -2.98587598695031      -0.15463745078428       0.95414674826984
H        -3.02439662152033      -0.06777443882915      -0.85399386711110
H        -2.51235437395250      -1.59303908007555      -0.03137422878491
C         5.61079531338993       2.18618435563074       0.79166714632544
C         6.43525271509402       2.90737779386050       1.81087590969029
O         7.07154284449392       3.89791978735758       1.48979386726878
O         6.47507708602812       2.50942201368754       2.96407177682280
H         4.83669747758592       2.87051554871325       0.38508667447011
H         6.26253258718544       1.83809938213096      -0.03711301711330
H         5.10893015617341       1.30606812309925       1.24678908749165
