48
C12H26F2N2O4S2 optimized with ADF in AMS.
N        -0.27338242233533       0.48993475167836       0.48110231092187
C        -1.16702917569808      -0.54629024478247      -0.16665408722284
C        -0.96506984294478       0.74216670212570       1.81806321313388
C         1.12121064904395      -0.06927468283653       0.74110089788051
C        -1.54332602244532      -1.49376243420811       0.96139872083162
C        -1.62012755841576      -0.58974130523240       2.21446646798013
C        -0.22728280622345       1.73703050424456      -0.37118549945788
C         1.94954473445903      -0.34122137819772      -0.50109753344095
C         0.61694203365831       2.85268991308074       0.20512905706386
C         3.26431506897694      -1.02147572888026      -0.09840216050756
C         4.18225704131882      -1.32695054544324      -1.28277761305238
C         4.75821806322159      -0.09055235121808      -1.97321161200804
C         5.73526907400454      -0.45192567047752      -3.08996177992732
H        -0.64539087584362      -1.00360278562738      -1.01644021371200
H        -2.04786606405456       0.00133864431581      -0.53661439452036
H        -1.71069838747636       1.52885023437442       1.63224916272247
H        -0.22332003278844       1.10391267173395       2.53800252517492
H         0.97733435832628      -0.97648404861582       1.34223783020803
H         1.61442359107490       0.65231572823443       1.40529475940783
H        -0.78163878202695      -2.27723815287648       1.08733654205586
H        -2.49514850421168      -1.99709626906145       0.73899154843336
H        -2.66242481004748      -0.41206357713198       2.51473319720464
H        -1.09083909408926      -1.03804459226645       3.06505488406998
H         0.13589950433219       1.42243125838663      -1.36113877990152
H        -1.27628606085639       2.05254180495422      -0.48291125850178
H         1.41772668802395      -0.99734633133990      -1.21325523410107
H         2.17274304282251       0.60033050847594      -1.02796669488793
H         0.51588995409861       3.72898590256316      -0.45177192410265
H         0.29764512426142       3.13736501450107       1.21664924966186
H         1.68138282424694       2.58985718753293       0.25976512340426
H         3.03276362842379      -1.95874144748746       0.43674938485322
H         3.79533990855687      -0.38405066034788       0.62878624789726
H         3.64269337586933      -1.94527705080969      -2.02547681230298
H         5.02052157750728      -1.94701748970065      -0.91774030028629
H         3.94445338478271       0.52731078461406      -2.39275029138827
H         5.26997986949496       0.53508630930045      -1.21978131554640
H         5.24027430563365      -1.05619545948985      -3.86781841207888
H         6.14800249327352       0.44749683291294      -3.57055423958404
H         6.57862717629607      -1.04252616229195      -2.69669512010865
N         2.50193336462456       0.86818931130937       5.13060305954188
S         2.44772464437181      -0.55189090862604       4.39127380428039
S         1.76793444280484       2.13676741608968       4.49092092575803
F         3.48818714539204      -0.34151851796052       3.10106890618647
F         0.15040354147929       1.83427162662256       4.79599755128014
O         3.10268611759306      -1.54052360493702       5.21494398123333
O         1.18447929417531      -0.87460418663929       3.72973226674286
O         1.79238055754030       2.21461349435430       3.02870327665436
O         2.06649180236808       3.30939922398087       5.27780995475677
