36
C8H18F2N2O4S2 optimized with DFTB in AMS.
N         1.02238686393087      -0.11463132785672       0.01838791131148
C         0.76105486765537       1.34049809146966      -0.26697287179821
C        -0.20296597235026      -0.90931884061517      -0.31258629308721
C        -0.46638628315348       1.88163834989930       0.45186482816133
C        -1.43427220339221      -0.42272012394129       0.44369108916645
C         2.15299007595050      -0.53782314318403      -0.89009345929176
C        -1.70761806152696       1.04935001265796       0.13777360616512
C         1.41371770973214      -0.31664112732996       1.44251488593270
C         2.74142211359127      -1.90179853546585      -0.57173786133122
H         0.63460488299156       1.42757271235766      -1.34929930022338
H         1.64799060353619       1.89717137969427       0.03601009276552
H         0.00282862537189      -1.95514705238940      -0.07655115868862
H        -0.36622501060805      -0.81453341447308      -1.38990293363065
H        -0.61125576153377       2.90955162406379       0.11046389952315
H        -0.29597054774451       1.91543411811211       1.53063807839601
H        -1.30381584485481      -0.56903847465245       1.51900140463096
H        -2.28097775918260      -1.03534895187068       0.12340876780696
H         1.75686949613062      -0.51725647311296      -1.90847381792512
H         2.93265076668371       0.21952551593798      -0.80073175590557
H        -2.55122393133379       1.39912156718062       0.73683413142601
H        -1.96990108399382       1.15981984096319      -0.91934948072237
H         0.71895258208377       0.20838653111788       2.09107638691274
H         1.39296187063931      -1.37994563801940       1.66903050351471
H         2.41357733567542       0.08014610173185       1.59010839238404
H         3.44129921483959      -2.14816812723195      -1.36994644065057
H         3.29615791649533      -1.87880532868322       0.36449223351510
H         1.98227530422135      -2.68136513718816      -0.52602453858633
N         5.50509435856615       2.75589669815515       1.14591387297431
S         4.21521911207283       1.90979157234947       0.95491791573298
S         5.26385270765953       4.34731062766283       1.31272509658408
F         3.72479786590667       2.18683117763426      -0.61689373182504
F         4.66051080277893       4.44102634817255       2.80447104453051
O         4.55325034135012       0.51253278319424       0.90567483020509
O         3.02455373261543       2.25717280001638       1.69112396702460
O         4.25492300042017       4.90574399430047       0.47593857757687
O         6.54122437317564       4.96402341494269       1.39310484932536
