46
C12H14F18NP optimized with ADF in AMS.
N         0.43099463529741      -1.26973858865356      -0.39794854375856
C        -0.74349371311120      -1.85800651870540      -1.16623083185381
C         0.61154568052893      -2.29386407569730       0.70914683979626
C        -1.68974181945047      -2.39052478688171      -0.08639699516713
C        -0.80875159890318      -2.58582737335799       1.17821451782451
C         0.06114208768483       0.06164982852070       0.16986886553199
C         1.65784189618481      -1.13296699022054      -1.24093858947584
H        -0.33631528757160      -2.67469033922571      -1.77428802424737
H        -1.16218796091941      -1.08167559300743      -1.82082071110291
H         1.29043258664828      -1.88650724030387       1.47094698522381
H         1.06070142474712      -3.17457142853035       0.22659920315349
H        -2.11884919867591      -3.34109161596304      -0.43026339277379
H        -2.52121075484548      -1.69922300077817       0.11450480851168
H        -1.11164335247010      -1.90030026407534       1.98425426462271
H        -0.87173518558675      -3.60733703690262       1.57490488158321
H        -0.09343118066037       0.76196522178522      -0.66036517246411
H        -0.86066595897074      -0.03141864580667       0.75392454679309
H         0.87963990417815       0.41379866868816       0.81055571587349
H         1.94941617777136      -2.12525364053380      -1.59594366085329
H         1.42582601187814      -0.48514874682019      -2.09558738335139
H         2.45147210049868      -0.68636704292633      -0.62797600460390
P         0.98291989480348      -5.28730030733987      -3.00281185460455
F         1.47669058914765      -4.19563259007362      -1.77027916650383
F        -0.57568594623653      -4.66977946951098      -2.82908389905110
F         2.52462658344471      -5.88992985470657      -3.15921804929050
C         1.49652282196386      -3.77697754817166      -4.21823516955102
C         0.75016217816900      -6.59817324890345      -1.51590055644887
C         0.22441961255819      -6.46726818958182      -4.42479824454826
C         3.00576342729635      -3.33887678845841      -4.25742118781768
C        -0.56990686885113      -6.61632753409993      -0.69166541784196
C         1.19231370615382      -7.30466005433766      -5.31126232990971
F         0.79441063275297      -2.63241929377253      -3.83652374622791
F         1.20012081346284      -3.96576351531834      -5.54239793805361
F         1.73267749123191      -6.36547828850280      -0.56806702990224
F         0.95299316310145      -7.88411810969998      -1.94777076423409
F        -0.54409474198878      -5.71397709612175      -5.28127513800303
F        -0.64569397645826      -7.37856436530011      -3.86627451502451
F         3.09279572287673      -2.13575295947261      -4.90581900819510
F         3.75088859751292      -4.22651962354726      -4.94129961260527
F         3.56545908215292      -3.16013869029734      -3.03289592539053
F        -0.50602510302572      -7.57617828705287       0.27018501430229
F        -0.74396558528074      -5.41858775137724      -0.04737555755706
F        -1.66940359091155      -6.84948525723093      -1.43290447497346
F         0.48158059208392      -7.94504084969101      -6.28202538674447
F         1.83600535729607      -8.24428261395191      -4.58362485182011
F         2.11413895469140      -6.52475166078339      -5.92205481156559
