43
C11H21F2N3O4S2 optimized with ADF in AMS.
N        -0.73493456851731       1.91080718649435       0.10105966061050
N        -1.76862134979900       0.18938010570764      -0.71428883948248
C         1.47073300331719       2.58166391101698       1.01520355411937
C         2.24537700207402       1.44317054422324       0.35620031820273
C         0.23533052876057       3.00874421862403       0.22754379149827
C         3.51821547899525       1.07077007082734       1.11289768006586
C         4.29980394649659      -0.04304632540716       0.41784353891103
C        -0.80603462437818       1.08728152681842      -0.95092772627625
C        -1.67088638533301       1.52446806739111       1.03989634747664
C        -2.32671763754506       0.44406052406216       0.52416225535584
C        -2.21452743295657      -0.83076252026644      -1.67859823897789
C         5.56613960917857      -0.44672609323417       1.16690227768441
C        -3.66732505120811      -0.62419990268735      -2.07017764099426
H         2.11643800913761       3.47365412031399       1.10093010173349
H         1.17889886070304       2.30259949114445       2.04459206541618
H         2.49799150642057       1.72411721571941      -0.68097167632810
H         1.60320852902729       0.54593842407786       0.28648415076705
H        -0.29205036262730       3.84661973416783       0.70721891397793
H         0.49398003204145       3.30812273532953      -0.79893601062819
H         3.26202283811487       0.75613556093050       2.14283048085564
H         4.16333087097367       1.96402011697549       1.21007289592276
H         4.55988787825133       0.28689784860756      -0.60415359131429
H         3.64272765246658      -0.92437343371348       0.29836789172929
H        -0.17256743510512       1.16312646154978      -1.83163348387953
H        -1.79812744257499       2.05301661059776       1.97662678237771
H        -3.14313160169837      -0.14593938689203       0.91998160044520
H        -1.55580701430162      -0.72954357499586      -2.55249935587268
H        -2.04247562169736      -1.81584931504717      -1.21643042189332
H         5.32858867311975      -0.81799975057609       2.17725374226743
H         6.24999762463626       0.41067326851819       1.27769986152744
H         6.10771842581098      -1.24207047294544       0.63329475746035
H        -4.34406972169262      -0.74307630546533      -1.21092721143304
H        -3.94418999616751      -1.37508486270309      -2.82439906518098
H        -3.79889963499581       0.37593720981576      -2.50595331550062
N        -0.16745193814377       2.71699954456759      -4.92669819279524
S        -1.49435320655572       3.06402747742553      -4.09664945166075
S         0.95975209128705       1.78124912251065      -4.30072769623411
F        -0.92778663596266       4.04703330512124      -2.86808049068354
F         0.23797697023718       0.26605393250913      -4.24975758227504
O        -2.33482290216263       3.92502266378237      -4.89241263762921
O        -2.07590875178560       1.94737426834942      -3.35478351397825
O         1.25235533620885       2.00562590942595      -2.88044250576942
O         2.04695422034965       1.63625044252834      -5.23679210581790
