46
C14H26F3NO2 optimized with DFTB in AMS.
N        -0.32228344765783       0.00966809667083       0.11864579531697
C         0.26012077647277       0.66172459005406       1.33954978996506
C        -1.76346038820315      -0.31660261502140       0.37853571560895
C         0.39294344629964      -1.29558004189459      -0.13287683464446
C        -0.50369780696139       1.90874390473594       1.75621435676456
C        -2.58369609428574       0.89668736077372       0.80852296896244
C        -1.96800793773634       1.57828591561802       2.03042354954724
C        -0.19775072789431       0.88090441070639      -1.08145061007428
C         1.84424709285528      -1.15465354381814      -0.59189080096072
C         2.54401075431253      -2.51381348465773      -0.46751631423130
C         3.97310955576604      -2.49978066215867      -1.02644178697602
C         4.90503689023094      -1.49002672285676      -0.32889338738877
C         5.11897552211074      -0.21774903517520      -1.14676645525684
H         1.29527594080504       0.91261630603788       1.12164283622001
H         0.23246766589549      -0.08404506906479       2.13878615097207
H        -1.77928589090642      -1.07495943131431       1.16631207368542
H        -2.17163942058642      -0.75042924677406      -0.53765213282329
H         0.34705701817259      -1.85775890721182       0.80392214617295
H        -0.18854874274804      -1.83369012533525      -0.88710534842676
H        -0.02460379346822       2.29171725402516       2.65996217450126
H        -0.41753991198621       2.68244335166162       0.99019652772870
H        -2.67206269082515       1.60940890552056      -0.01554946331741
H        -3.58962438606178       0.54010870309500       1.04560286280443
H        -2.04070768402765       0.91209255992298       2.89624445579049
H        -2.52240166754763       2.49176643991652       2.25621603135873
H         0.84119531669722       1.17600121017947      -1.19704313502450
H        -0.53309138281703       0.32220681795255      -1.95338764165547
H        -0.80971455784145       1.76917281265938      -0.95604958033910
H         1.87716329087575      -0.81813768568171      -1.63088332419265
H         2.36938478411738      -0.42265772191012       0.02129730433594
H         2.56895260634540      -2.80580553091350       0.58815920906654
H         1.96165355317780      -3.26896865336860      -1.00781782861639
H         3.93548974402258      -2.29296592204629      -2.10143743986698
H         4.37463797761333      -3.51078980773719      -0.90450073780863
H         5.87638014209956      -1.96656168731892      -0.16277433290122
H         4.50076280973192      -1.22996191752558       0.65463070628675
H         5.65751253603864      -0.44285950443302      -2.06857506050339
H         4.16872909310137       0.24797874220856      -1.40613700814271
H         5.69890300196949       0.49789518115915      -0.56411436355384
C         4.59225442183224       3.31003672207130       0.40696275072816
O         5.56434859736482       2.60369578737899       0.32309830336495
O         4.28667508498307       4.47024794587588       0.34579413250658
C         3.16393378087768       2.33057168054971       0.68805453977543
F         2.16981365884813       2.92994227699516       1.39677877133649
F         3.37404164178720       1.14406332468685       1.32779470285686
F         2.55208201035011       1.95838280566196      -0.49015253285223
