39
C11H19F3N2O3S optimized with DFTB in AMS.
N        -0.03516452075965      -0.82713669681081       0.90987438604094
N        -2.10446577396906      -0.68399020534507       0.32033733418162
C         1.14920892337188      -0.86912647992221       1.77024286338200
C         2.31651524078607      -0.06583557841417       1.19889204827251
C        -3.55781924925788      -0.54391208789169       0.43017469009013
C        -1.28064369547512      -0.71518783697278       1.36401869966587
C         1.98598085271826       1.42287333491322       1.05466355181874
C        -0.06359951632571      -0.86527322937591      -0.45754074035633
C        -1.36814303723765      -0.77511126783627      -0.82920721846388
C        -4.13950356873234       0.38430951491656      -0.63559893264976
C         3.18947064311220       2.20609914563522       0.53772836773259
C        -3.58786303523358       1.80420121206170      -0.53844187569597
H         0.84659277443150      -0.46017235351564       2.73807144548577
H         1.43534073311765      -1.91924455833948       1.89447441169765
H         2.62322024317293      -0.48401921081658       0.23448988908477
H         3.15398594674237      -0.19094268062412       1.89277189613206
H        -3.75733283125181      -0.14456884404763       1.42846666652913
H        -3.99818303140040      -1.54336030654818       0.34544777329264
H        -1.56964876433317      -0.65019131724862       2.39891941721883
H         1.14580052539977       1.54638960631019       0.36644042921755
H         1.67805837221327       1.81759196292932       2.02650375768729
H         0.82566325530671      -0.95347353662781      -1.05548379522514
H        -1.81376843608405      -0.77072334595977      -1.80772728729906
H        -3.95724033671135      -0.02917773631168      -1.63284780496862
H        -5.22259565426846       0.39990729116766      -0.47916646284327
H         3.49678552818154       1.83873774977854      -0.44316768752730
H         4.03337854564487       2.11367500625461       1.22322919507585
H         2.92946989598268       3.26048182149033       0.44787445769158
H        -2.51087056191287       1.81239789281616      -0.69968872000268
H        -3.78849242606555       2.22009135374583       0.44812706708599
H        -4.06143763052433       2.43337181565443      -1.29167489934403
S        -1.41467680848548       1.99100931683789       2.51040613069451
O        -2.75765450759634       1.44254120636964       2.65183788100693
O        -1.00947077175502       2.21145547759385       1.13093531722005
O        -0.41244688443956       1.30815677510805       3.31818718871963
C        -1.53107183037793       3.68716521303747       3.23343184447787
F        -1.89299037091190       3.63571602528968       4.50837299049923
F        -2.42853382842452       4.40729283712157       2.57036519453364
F        -0.35771080144798       4.30489931907651       3.15451690714066
