40
C10H22F6NP optimized with ForceField in AMS.
N        -0.56343846003542       0.30378865693374       0.15640570676741
C        -1.56293210832720       1.23035745115949      -0.46543785862957
C        -0.89771394757246      -1.11493826529985      -0.17917712832722
C         0.77319808568259       0.66594690791919      -0.42637356021628
C        -3.02959866378069       0.88988294997093      -0.14837420124804
C        -2.34984539490183      -1.50349198340857       0.15325891367894
C        -3.34171235709229      -0.55680160984604      -0.51513701812380
C        -0.53287132279320       0.50697602810650       1.63120720754339
C         1.98131385933029      -0.15284895034691       0.09413183457286
C         3.28422981203332       0.32650994687884      -0.56105051225962
C         4.48567796658790      -0.46809614366990      -0.05391988197906
H        -1.46808249836381       1.20804940418142      -1.57493037613037
H        -1.37309021173973       2.28180443342497      -0.14954897048115
H        -0.24092326913416      -1.81934803027282       0.37612441511986
H        -0.73267198818012      -1.30486924243442      -1.26474765320040
H         0.98786263011748       1.74374274279587      -0.23480538364017
H         0.74747767034356       0.55077238581506      -1.53539583380055
H        -3.68783708814026       1.56045560962394      -0.74228461143465
H        -3.26660554478037       1.07779227970434       0.91881434667592
H        -2.51045556398176      -1.50843686851086       1.25189014963841
H        -2.53825198714685      -2.53668410976268      -0.21094353326514
H        -4.37323473945622      -0.80668638491784      -0.18492112906308
H        -3.29444890895078      -0.68245428729324      -1.61986365446639
H        -1.53502626542085       0.41592039343786       2.09192346951826
H         0.09599543568309      -0.25603631753972       2.13677129725067
H        -0.14110297717464       1.51597131464083       1.88957276764515
H         1.84998254704179      -1.22804036747584      -0.14460327233100
H         2.08836392552174      -0.03260877353493       1.19124742767205
H         3.44536764928768       1.40264621140144      -0.33193447441903
H         3.21603973727671       0.20904706105951      -1.66457145706818
H         4.36675519166095      -1.54602231474029      -0.29573175460301
H         4.59159402826790      -0.34931175520048       1.04578310690406
H         5.41206766553211      -0.09629947480597      -0.54026805094232
P        -0.16752149792158       4.51619052229949      -3.67442241868353
F         0.81272607485599       5.08520227408446      -2.38330777411969
F        -1.56475761705612       5.00649505289108      -2.80260356920204
F        -0.04672438251834       6.04270384436516      -4.45339712461396
F        -1.18967075698668       3.93366105058779      -4.92662089219261
F         1.22207971057340       3.99210154792437      -4.53779546922984
F        -0.21204699384116       2.97088679275406      -2.93067219221631
