32
C8H18BF4N optimized with ForceField in AMS.
N         0.00652679051153      -0.00063815152291       0.00107102685555
C         0.91788654750118      -0.84859179322315      -0.82766410397933
C         0.91509121843531       0.85175136275573       0.82871626630320
C         2.32990211466094      -0.31638543728552      -0.68025931541521
C         2.33038217624535       0.32733954912286       0.67715022836822
C        -0.82634904282154      -0.86355055324201       0.90109203385665
C        -0.83185265948633       0.85767340079334      -0.89829970860279
C        -1.81525334950001      -1.78792703370748       0.16688241494124
C        -1.82989115455150       1.77176378305013      -0.16385716503029
H         0.63602537643965      -0.87786342585893      -1.90490744091511
H         0.93790137856737      -1.90777367925184      -0.48325403280621
H         0.63554800983626       0.87734702159278       1.90667255172764
H         0.92705485890994       1.91179795065559       0.48658541538431
H         2.53029418490833       0.44818071713391      -1.46304392213758
H         3.08479678104469      -1.12962402584043      -0.74595155512709
H         2.53637523201750      -0.43661748147103       1.45902627777252
H         3.08401628457763       1.14249656018030       0.74120802908474
H        -0.16612905809835      -1.50322367526371       1.53168928141219
H        -1.40564057952851      -0.24287080584152       1.61941438961971
H        -0.17587039324030       1.50429500337444      -1.52625824549080
H        -1.40506876986153       0.23394666085951      -1.61890243875792
H        -2.28087513401529      -2.47707944081690       0.90187719103869
H        -2.63206932129081      -1.20749112134123      -0.30768950795380
H        -1.30923224223058      -2.40262711989439      -0.60499957338624
H        -2.29912446659755       2.45962922637576      -0.89780071789322
H        -2.64375664382177       1.18312521845263       0.30577571960252
H        -1.33054268122380       2.38722463830226       0.61176621794069
B         6.86402481871400      -1.36381170037059      -0.46943415300973
F         7.38371975810355      -0.79089411143084       0.72162171668325
F         5.73252837695204      -0.62046995720187      -0.89693228810036
F         6.48166235001753      -2.70882691882484      -0.22032010517078
F         7.85897241702508      -1.33429318966002      -1.48248445381464
