37
C9H17F2N3O4S2 optimized with ForceField in AMS.
N         1.00095128762106       0.36622880972638       0.48275017527106
N        -1.00156350246769       0.35686011182056      -0.48181023638718
C         2.25449790685940      -0.10221026149096       1.06985414072903
C        -2.25015909944697      -0.12316703357016      -1.06980116606748
C         0.00299151658502      -0.39902545282308       0.00098926736193
C         3.41845401101262       0.07566713656258       0.08910228803083
C        -3.41462935024771       0.03810237992005      -0.08722433804488
C         0.61683538018383       1.64557986758586       0.29764884035694
C        -0.62909790878175       1.63973190176838      -0.29777626294094
C         3.21929710966452      -0.74033327958863      -1.18782443771801
C        -3.20384347511469      -0.78083826868499       1.18579528774703
H         2.16684539755442      -1.17491468555951       1.35086896880556
H         2.46283951509819       0.46947346219314       2.00008489455273
H        -2.15087391411604      -1.19389461859990      -1.35458642443757
H        -2.46569363483643       0.44920586087530      -1.99797584877799
H         0.00783105822988      -1.48218441636571       0.00139911368496
H         3.52985157866044       1.14981450966251      -0.17255980172913
H         4.35655101905537      -0.25684796049218       0.58312331213174
H        -3.53811434380526       1.10995685261738       0.17878885741460
H        -4.34940879541918      -0.30314249880555      -0.58159999062445
H         1.19790569203706       2.51573004006245       0.57493609243504
H        -1.21782345434309       2.50430012227607      -0.57640928717880
H         2.34499255598822      -0.36155765273665      -1.75829275319815
H         3.06015473845118      -1.81213322863187      -0.94301599120277
H         4.11986767791070      -0.65170324711226      -1.83034331872262
H        -2.34634442065522      -0.38114550359661       1.76757552846615
H        -3.01374316232789      -1.84638829146375       0.93646242365918
H        -4.11260709781205      -0.72308831294072       1.81789193248196
N        -3.92900729380438      -1.42306877854954       5.24907787790277
S        -4.57108263782046       0.08043527114746       5.17781338937899
S        -3.26524479787423      -1.99853001188697       6.62977136044995
F        -3.33031563856268       1.20189406998542       5.09885839988153
F        -4.48678287371494      -2.36302332495143       7.71551927216224
O        -5.43362448893180       0.20333394860347       3.95456279031457
O        -5.39444595185827       0.34789130290269       6.40633458454562
O        -2.36519752018633      -0.96051003534146       7.23916133422420
O        -2.47635982248483      -3.24103045461779       6.32972535324137
