34
C10H22ClN optimized with ADF in AMS.
N        -0.91352705148489      -0.31336588780389       0.17664828720561
C        -2.05467129250292      -0.49245853457986      -0.81560728527023
C        -1.43572070134803       0.76532171209959       1.09636131585607
C         0.32245145705708       0.16633170517978      -0.57401286397769
C        -2.54439799677648       0.92682211896668      -1.08110654845186
C        -2.17002222570530       1.75057989583400       0.18305352646726
C        -0.65387183448784      -1.58364997327958       0.95129012709080
C         1.58702561276024       0.25213736815352       0.25848863935275
C        -0.16452410972892      -2.74273848955024       0.10898942998052
C         2.71953971295859       0.83638412142315      -0.59220030727212
C         4.03187231359178       0.92782272670165       0.18057726582632
H        -2.81171604876261      -1.09774880130233      -0.29178095221119
H        -1.65231292860634      -1.01848221955423      -1.71887014780802
H        -2.13090072330418       0.26774505498800       1.79028087825873
H        -0.60143959037169       1.19347393197050       1.66806331477625
H         0.42365800740378      -0.51828042804384      -1.45375109414789
H         0.05999218412901       1.15678634671163      -0.97343998955305
H        -2.05395561290714       1.32916199310128      -1.98110463938619
H        -3.62705583829074       0.92636626596429      -1.27332518952842
H        -3.05428992189822       2.15108942137445       0.70051898526850
H        -1.52901560700527       2.60695028153012      -0.07461128857441
H         0.06102248222523      -1.32020308739905       1.74628032588164
H        -1.61641768023412      -1.82378367997692       1.43063025207843
H         1.45718203328400       0.87982278165611       1.16101604438158
H         1.89537402727944      -0.75007387994106       0.60140252854283
H        -0.09768114353673      -3.62953450699765       0.75924161100628
H         0.82195185070286      -2.55530944890774      -0.33445668085735
H        -0.83405979644247      -2.95791328154840      -0.73655703028885
H         2.84447346034559       0.20822590607704      -1.49105880144504
H         2.42499180856798       1.83888736679242      -0.95132918236213
H         4.35942610530280      -0.06793070381465       0.51972249573173
H         3.92425938523821       1.56812421414800       1.07117164419958
H         4.83490799366088       1.35005063316059      -0.44207311951022
Cl       -0.19325565651360      -1.71887381103340      -3.19203224236021
