39
C9H16F6N2O4S2 optimized with ADF in AMS.
N         0.73932664805245       0.29322285939814       0.92983136686234
C        -0.39256312180128       1.23104011258591       1.33383798560394
C         0.41712802638938      -0.33885171578109      -0.40902680791680
C        -1.74195314887135       0.53870041372607       1.34703335414686
C        -0.92350925163121      -1.05509718445526      -0.41677498695840
C        -2.05397345248025      -0.11477809794319       0.00240517824498
C         0.95950997905453      -0.75167467971933       1.98736422471249
C         1.99472792991574       1.10187670741688       0.80499349906067
H        -0.37088901174957       2.04790399447559       0.59316328061826
H        -0.11616040231636       1.62171582776246       2.32398479589094
H         1.25251320106958      -1.01358209751110      -0.65188964545578
H         0.41247623683983       0.48945923772946      -1.13656036399115
H        -2.49076699699166       1.30869121953736       1.59308766148911
H        -1.78212051295057      -0.18741223287901       2.17555456828716
H        -0.88947555506142      -1.93932552198590       0.24164243361930
H        -1.08626174882279      -1.43499872559680      -1.43965971387316
H        -3.00573220933782      -0.66690711778538       0.05335522854991
H        -2.17735861703657       0.66860549663502      -0.76867445278604
H         0.04396786785608      -1.33039866903222       2.13446365274068
H         1.77931610976906      -1.40161313234711       1.65409537131142
H         1.20549505997174      -0.23057517590852       2.92412414620457
H         1.84774918992642       1.85375441805683       0.01895163121644
H         2.19804827542313       1.59265175664438       1.76965788232225
H         2.81645027317048       0.42695866066184       0.53020992612817
N         0.71663087110103       1.36161014900648       4.43149708388072
S         1.65393993642100       2.63789854293579       4.76793718605653
S        -0.53877585914676       0.85899828652603       5.32421800665879
C         2.84833034605476       2.12263144191986       6.14776146042648
C        -1.92392907595619       2.14725008724629       5.09884960742581
O         2.53288515067590       2.76893787491932       3.60117886601487
O         0.95930932077676       3.80125754374657       5.29950980847682
O        -0.31585112377658       0.81216840558793       6.75986010735523
O        -1.06354992471263      -0.30402558987646       4.60607582563882
F         3.89831169530873       2.98050591879058       6.13725274452572
F         3.31519404092245       0.86777969503406       5.93215210239816
F         2.26483793312203       2.17330284336616       7.35749521280997
F        -3.11748273123965       1.52692045564050       5.27124323630609
F        -1.90293931718347       2.66624056307691       3.83504884181948
F        -1.83272767035493       3.15443196819499       5.97919718907836
