46
C12H26F6NP optimized with ADF in AMS.
N        -2.18100796423836      -0.01232360217722       0.00337870527160
C        -2.34857995022108      -1.34395675603634      -0.76118017557665
C        -3.29057161801958      -0.02038795262732       1.06209820587955
C        -0.83363886176337       0.03105694526736       0.69213099152820
C        -3.58021203033872      -2.02022213483856      -0.17087581149885
C        -3.63336191334194      -1.48643497423429       1.26053524064976
C        -2.36485603356825       1.15733625779588      -0.95145526904293
C         0.35728438409603       0.06929027814627      -0.25324322993821
C        -2.23843772752336       2.50957734146448      -0.28557002763519
C         1.67198259674201      -0.10990750480291       0.50887527523937
C         2.89349596646309      -0.04569362489613      -0.40755115584235
C         4.21155000860573      -0.22529871095120       0.34409575562212
C         5.43117838032279      -0.16625417342002      -0.57297000794543
H        -1.43431464344989      -1.92626604768947      -0.58485518796611
H        -2.46208391449896      -1.11724081592845      -1.82750167611638
H        -4.14526662006541       0.50484813543247       0.61446252290650
H        -2.93430426182443       0.50555146955438       1.95653636496561
H        -0.79467737124344      -0.85993283759926       1.33859402550881
H        -0.83533472979464       0.91827966054624       1.34201152358925
H        -3.49355882537099      -3.11497148232311      -0.22511062849984
H        -4.47406238856396      -1.70527070979523      -0.72868857263782
H        -4.62812998864622      -1.59478174040237       1.71801562781510
H        -2.89652022550887      -1.98784509133188       1.91134158297397
H        -1.62342417948327       1.02337205280668      -1.75147518427200
H        -3.36097244389298       1.02387476013974      -1.39172758352599
H         0.27222402839710      -0.72265952060076      -1.01650518727841
H         0.38068784230286       1.03127717788844      -0.79127681858131
H        -2.49126958103927       3.27186289317046      -1.03823958516402
H        -2.95425460304498       2.62934061987495       0.54078698299776
H        -1.22198323057233       2.72080831550982       0.07949298356766
H         1.66216482420932      -1.08154298156014       1.03684889197231
H         1.75883844088615       0.67011463728566       1.28794299315760
H         2.90296849628999       0.92504619080806      -0.93781262494586
H         2.80645369977187      -0.82527055520312      -1.18783015636998
H         4.29163570607969       0.55687846744444       1.12105902708397
H         4.19324175665586      -1.19333069131929       0.87732186696857
H         5.48365175387580       0.80043846898250      -1.09821749724869
H         6.36791155556252      -0.29223707361465      -0.00796471238391
H         5.38995351249364      -0.96031196874323      -1.33547175839266
P        -5.81433845378593       0.35664547136590      -2.72241478775311
F        -5.04774135786512       1.82767823757098      -2.82829985616116
F        -6.06673473695175       0.32959994906066      -4.33435222454687
F        -4.31556996172693      -0.38591867623035      -2.94029411329864
F        -6.49172071467681      -1.13229411610786      -2.53518652633258
F        -5.50003020423078       0.37945943869594      -1.05151141213695
F        -7.24763320480283       1.09188103932184      -2.44786300120581
