36
C8H20F6NP optimized with DFTB in AMS.
N         0.56056137457624      -0.13563119608127       0.00182527756349
C        -0.69141567842155       0.02073655307678       0.81810298602105
C         0.32902520863309       0.24165127083886      -1.44333899790370
C         0.99282223546632      -1.58082351387716       0.04916326411316
C         1.62304355577982       0.76940754828343       0.57207483960806
C        -1.91552131797886      -0.70680859807302       0.27922372168457
C        -0.24652243195499       1.62991098269948      -1.66894013245074
C         2.35408227017895      -1.87628937239520      -0.56168919484201
C         2.02536210972801       0.47311284379489       2.00717415222162
H        -0.46768728674828      -0.35341364958448       1.81945906152886
H        -0.89681636819676       1.09108946328403       0.88920145746340
H         1.29641139671099       0.17810908442165      -1.93971931630313
H        -0.33291764829844      -0.51649733884474      -1.86757964155072
H         0.98046260950762      -1.88467779185394       1.09922819306513
H         0.22669109571754      -2.15241504067909      -0.47999581634184
H         2.49228574037634       0.68517699476662      -0.07835231359727
H         1.24174086118554       1.78908434737894       0.50175303555442
H        -2.73440780124802      -0.52746806096739       0.97597507339920
H        -2.21523513328013      -0.33528727174761      -0.69819369299950
H        -1.75266148117164      -1.78112323412928       0.21609936331178
H        -0.36188455509096       1.75157509997125      -2.74590025456112
H        -1.22110712084869       1.76399250296717      -1.20183592220608
H         0.43315321051985       2.40423474575902      -1.32070984641460
H         2.50521263974929      -2.95426108592823      -0.50477721744090
H         2.40791427994967      -1.57620507018729      -1.60516454471061
H         3.16045096453092      -1.38716369290918      -0.02025261763108
H         2.82935601555564       1.16481031706648       2.25885268900555
H         1.20929592494650       0.63265250522730       2.71115587923057
H         2.40455829003156      -0.54018704346015       2.12602051134568
P         4.01120406077931       1.28359266376447      -2.51069841230151
F         2.66366505014657       2.01748178839707      -1.80490751931502
F         4.95108827360122       2.48303472620429      -1.94040604013196
F         4.22275364358300       0.43644757087213      -1.07491615090386
F         5.28332245235035       0.51083712178918      -3.16040231431779
F         2.99472075457340       0.04752815031624      -3.01687286367631
F         3.71568392686058       2.09162456223874      -3.89186487551679
