37
C11H20F3NO2 optimized with ForceField in AMS.
N        -0.04603930645941       0.26047549785844       0.13973846925867
C        -0.96478262280413       1.24751731889279      -0.51314107025627
C        -0.49259065676277      -1.13600247476362      -0.15383616952073
C         1.31670328036116       0.49074459410067      -0.44508610152918
C        -2.45944917723610       1.02413928254189      -0.20815804987527
C        -1.96887466097762      -1.39443715082294       0.19224456287622
C        -2.87331058682344      -0.40628951385967      -0.53338194850040
C        -0.00036703254283       0.50633010264939       1.60683376551763
C         2.44892485159119      -0.40153415897376       0.12195406570205
C         3.78070149294346      -0.08151710971771      -0.55230080763597
H        -0.85239671060380       1.20445727984490      -1.62173947095629
H        -0.69997021474785       2.28581408004091      -0.20899291583150
H         0.10714607311876      -1.87461685947468       0.41967902482275
H        -0.34874155418906      -1.36661716834817      -1.23461242132714
H         1.61700526395651       1.55390126067755      -0.29219851297899
H         1.28713813801282       0.33307380056720      -1.54835973319498
H        -3.06205975909334       1.72090735126103      -0.83009137442714
H        -2.69464515437080       1.26016813798086       0.85018266269686
H        -2.13051987518826      -1.32775763244578       1.28926311072042
H        -2.23929443847544      -2.42677187671843      -0.11827593390746
H        -3.92782514178089      -0.56936212855010      -0.22221325666577
H        -2.80684376998388      -0.57479918358752      -1.63117631188650
H         0.54390095884373      -0.30253130485109       2.13897902736620
H         0.49619997479457       1.47548948742438       1.83571215889212
H        -1.00908255628051       0.54130284544574       2.05993032763059
H         2.57696561533160      -0.23295485652006       1.21066951543139
H         2.23383469397036      -1.47490163129928      -0.05432266046390
H         3.71493661765500      -0.26729589266545      -1.64565226128768
H         4.05815563103210       0.97952169753928      -0.37533090300980
H         4.57716527494718      -0.73025577593118      -0.13001557607735
C        -0.13813147813155       0.94342588338920       5.90995670008544
O         0.07702064744907       1.62470097726270       4.92002204904253
O         0.19310048482877       1.35604352829936       7.01006004298574
C        -0.80733583541510      -0.39279466199786       5.78450926967781
F         0.01575947934832      -1.37250600089400       6.30814921231281
F        -1.06753088554537      -0.68602605830706       4.45772985371498
F        -1.99991708897245      -0.37839132144791       6.48359681789812
