37
C9H20F6NP optimized with ForceField in AMS.
N        -0.05635651745271       0.23613262134657       0.16954942934832
C        -0.96975290247188       1.23518135171079      -0.47237099026745
C        -0.50234689348992      -1.15465646806920      -0.15010682276089
C         1.30910293441429       0.47597609304216      -0.40448215815978
C        -2.46436583796988       1.01217291664266      -0.17408485234541
C        -1.98189011393339      -1.41777785264819       0.17820152387917
C        -2.88149877542215      -0.41060186472705      -0.52817351166764
C        -0.01913862547484       0.45689059272109       1.64098369489752
C         2.43850623509634      -0.43063710537535       0.14174167658234
C         3.76666340706982      -0.10559845209390      -0.53807452155748
H        -0.85439454461340       1.20619524575267      -1.58141535712737
H        -0.70136668786355       2.26883095094374      -0.15505716013742
H         0.09151795920851      -1.90281919966619       0.41785466166859
H        -0.34794587881435      -1.36845117312432      -1.23311722369388
H         1.61066289458033       1.53327239365607      -0.22192624090928
H         1.28233200356372       0.34428462539760      -1.51132429385937
H        -3.06313553432474       1.72182076219391      -0.78460131448473
H        -2.70023442038311       1.22936795537162       0.88798228142199
H        -2.15207745900985      -1.38015276672596       1.27502008952693
H        -2.25152702127242      -2.44083521178519      -0.16167029811363
H        -3.93651380376544      -0.57600262927927      -0.22237203930321
H        -2.81217190521288      -0.55643368852959      -1.62859930395945
H         0.54244681047729      -0.34822210522474       2.16036838561828
H         0.45351606470401       1.43375643853044       1.88699116834087
H        -1.02929770654323       0.45766783904784       2.09387173394477
H         2.57317210086577      -0.27963962502132       1.23247252036757
H         2.21766856127352      -1.50013779717096      -0.04947037429691
H         3.69681156749832      -0.29238156290699      -1.63053490023913
H         4.04080202548001       0.95676865721745      -0.36481060318704
H         4.56703280317600      -0.75115072696019      -0.11944935737363
P         2.29525569300223       2.72780219097031      -4.11985435808806
F         2.09652159172288       2.90331891890802      -2.42393344266557
F         3.10418247370007       1.21924683822352      -3.97835783562179
F         0.87271373754170       1.77501410484671      -4.25949719070893
F         2.53919158138367       2.78772973088772      -5.81897583881164
F         1.36345988236358       4.15940141983527      -4.30136783904388
F         3.80063501179566       3.53477735856224      -3.93716606911281
