32
C10H14F3NO3S optimized with ADF in AMS.
N         1.90617923211977      -0.23691373391365      -1.07093155502628
C        -0.40353724251351       0.08479767736878      -0.22113868845198
C         1.08296072143293       0.29063485920473       0.04077171115705
C        -1.24677104082483       0.61430152675481       0.93932494926665
C        -2.74148361737470       0.40905797799745       0.70853124104964
C         2.35016636368281       0.59899445913343      -2.02990596552928
C         2.27427838631238      -1.53294628946124      -1.05286652759722
C         3.12231239886522       0.12289473163713      -3.07364828247123
C         3.04154925551490      -2.05987367507671      -2.07626672386525
C         3.47113248937540      -1.22395183906178      -3.10078007153406
H        -0.61096876469870      -0.99081642607452      -0.36987187762546
H        -0.69079734936389       0.59617567097701      -1.15822416568553
H         1.43294488892011      -0.22454220032806       0.94719075723922
H         1.35433083131060       1.34900403343074       0.15342919440209
H        -0.93869963537491       0.10872433304229       1.87151542474294
H        -1.03328425078970       1.68819037560212       1.08423354332502
H        -3.32987994674334       0.78967697784169       1.55686686072252
H        -3.07824269146691       0.93511667229743      -0.19855972166013
H        -2.97913450342546      -0.65947161084927       0.58639716678385
H         2.06687177505051       1.64230551380149      -1.92568656532993
H         1.93161368664667      -2.11735118301818      -0.20394221277914
H         3.46836868455120       0.81761986892596      -3.83766568995097
H         3.32240600113924      -3.11132699953368      -2.04056135995900
H         4.09243674233884      -1.61565997007598      -3.90779767494544
S         4.48037249614295       0.59815203701934       1.00409856813656
O         4.73166195012234       1.14562048999881       2.33598058084426
O         3.87528665466988       1.53626965639317       0.02534718168614
O         3.88569804259621      -0.76318192348326       0.97224719704388
C         6.18959044451190       0.31913659315263       0.29140375200313
F         6.91551089701029      -0.52611974108048       1.06683982243485
F         6.87218953675750       1.48746942371428       0.18601827866267
F         6.11562944900432      -0.22950397363648      -0.96288312018959
