31
C9H19NO2 optimized with ForceField in AMS.
N         0.81597380007734       0.00353006818339      -0.05190212536881
C         0.05616364807625       1.24200764533757      -0.39313203606423
C         0.04351265863652      -1.21820664921417      -0.42269662853130
C        -1.36819565078958       1.26587578456565       0.18990836357445
C        -1.37861799873363      -1.24276239806815       0.16414728717067
C        -2.14423280082800       0.01864313628702      -0.22638578575859
C         1.18101671471840      -0.01625866582453       1.38819931477604
C         2.07808498512991       0.00494222205723      -0.83209472830846
H        -0.03727234175998       1.34364735350830      -1.49947673772148
H         0.60006821123327       2.14591306126469      -0.03590924730758
H         0.57870141032863      -2.13635360081735      -0.08896969458485
H        -0.05174943099112      -1.29055260414164      -1.53119779622948
H        -1.90048994812993       2.16467895362102      -0.18960473620274
H        -1.34074930515920       1.34780507115449       1.29657481479159
H        -1.34855010899297      -1.34570147335080       1.26905828230080
H        -1.91888065924916      -2.13013679108184      -0.23047361501360
H        -3.13981326348011       0.01737115089954       0.26669770594303
H        -2.30524318784277       0.03025378242254      -1.32710185958282
H         0.29166912791698      -0.01320469076482       2.04823401967333
H         1.77387973156965      -0.92478506505974       1.63680831345120
H         1.79321591211197       0.87363513585410       1.65728667872702
H         1.87799789532185       0.05282554370602      -1.92613020846682
H         2.71485933474703       0.87942500475668      -0.56753105632642
H         2.66709304903412      -0.91977310048140      -0.64143953728129
C         6.02841808875124      -2.81002353601844       0.14000831938349
C         5.36641859709050      -1.50922901883233       0.46965706723053
O         5.57199708159456      -0.52466750675139      -0.22143077231480
O         4.62818247173793      -1.42652686576179       1.43779441565147
H         6.23819295382556      -2.87110610688991      -0.94925981581553
H         6.98407542025674      -2.89001718855732       0.69897421362212
H         5.36931518049804      -3.65843845480263       0.42249105778307
