41
C11H9F18N2P optimized with ForceField in AMS.
N         1.13898209144761      -0.00380155064343       0.00386158909651
N        -1.08343102270321       0.01427280592901      -0.01821333343473
C         0.02145096289045      -0.75641864640004       0.00317877238191
C         0.72881491473217       1.27970970032763      -0.01866567746883
C        -0.65200661053016       1.29090552390278      -0.03230486756354
C         2.51732206439596      -0.47430985904292       0.05571836681315
C        -2.47034712023497      -0.43317863925765      -0.00276022290035
H         0.01232883931399      -1.83935671723797       0.02829608901877
H         1.38319219889682       2.14190147152420      -0.01445112180680
H        -1.29258050804581       2.16346128743718      -0.04172250421558
H         2.54991087385346      -1.58461062142281       0.06835621493155
H         3.07187958125292      -0.11073959556434      -0.83310644907554
H         3.00820451711114      -0.08931610985834       0.97404556446114
H        -2.97859204456964      -0.04126762738034       0.90339527211572
H        -2.99401211240678      -0.05855758516643      -0.90721451978987
H        -2.52187986064976      -1.54298401578572       0.00888161437265
P         3.82223656742056       1.66073209904618      -4.47057019646940
F         3.12327834794424       0.92699790422046      -5.86239827554121
F         2.96959250451798       1.23156064958575      -3.03846692630705
F         4.96497050107023       2.00723185859575      -5.70841287966394
C         4.35557214502992      -0.18514089943936      -4.21284663518765
C         2.27399605984622       2.73311598201165      -4.91632338561973
C         4.98565349417185       2.92397864372610      -3.58414736143394
C         5.19438192935404      -0.85370137700734      -5.33547322381706
C         1.89001394093059       3.86107175585876      -3.93413170155790
C         6.37985587869827       2.42113458033454      -3.15790391492750
F         3.21789235999907      -0.96893475469262      -4.06374747572489
F         5.07107921246628      -0.29740577227748      -3.03815274863342
F         1.15161893328378       1.91532900166610      -5.00683823025851
F         2.47977414700504       3.32417001669764      -6.15472547397951
F         4.36747078298916       3.35538238514545      -2.42389285642021
F         5.16788087792370       4.03837458414850      -4.39162049635908
F         5.63233247745199      -2.08767345067248      -4.88746978414209
F         6.30586642963549      -0.11421002005381      -5.67703629975343
F         4.43481825599693      -1.07023674808418      -6.47143580625121
F         0.68328849718742       4.40646261722188      -4.33656618414296
F         1.72557997466046       3.38315099639192      -2.64792059315721
F         2.82156549874569       4.87909759382411      -3.93877049162238
F         6.28927286044634       1.60923870361705      -2.04315503339456
F         7.16257947393276       3.50921594746457      -2.81366544293633
F         7.02317102213784       1.74735616271006      -4.17185761323499
