56
C16H19F18N2P optimized with DFTB in AMS.
N         0.51186985670405       0.92435180630712       0.40293599902789
N        -1.62648460728805       0.72108685591167       0.56006488166129
C         1.84340912167968       1.52895370990846       0.39171384761818
C         2.42489120455591       1.54944407094918      -1.02354638330167
C        -3.02590192678406       1.08144292653161       0.79584978068665
C        -0.61126364631467       1.56650376484836       0.70557514908392
C         1.59637508394740       2.40892575783310      -1.98339043047660
C         0.20892126809646      -0.36568635906719       0.05665047521850
C        -1.14049443666629      -0.49534172695416       0.15932397140975
C        -3.93453741660354       0.61299132044522      -0.34064156644011
C         2.20181022378610       2.41326482124628      -3.38468949127296
C        -3.57635310075722       1.25348371324085      -1.67943960093893
H         1.74227701577679       2.54283002369698       0.78565870762365
H         2.48345319425227       0.94437544801743       1.05914543179260
H         2.49490956923758       0.52431024199918      -1.40201255884556
H         3.44024628271664       1.95000500079783      -0.95120064229738
H        -3.05963181846101       2.17005069824939       0.89630293740941
H        -3.33544352303267       0.62464087167739       1.74144684212590
H        -0.68950140275435       2.59035330632781       1.02015097269930
H         0.57476260438571       2.02057181274263      -2.02823332268169
H         1.55280603193438       3.43402579181973      -1.60626632555740
H         0.96339572141539      -1.07898378158930      -0.22504952847571
H        -1.77608729943620      -1.34516213617660      -0.01570504379659
H        -3.89061370548459      -0.47753049152453      -0.42123240327380
H        -4.95745388520955       0.88539077040390      -0.06598275806064
H         2.23873010060093       1.40168948813874      -3.79258004264484
H         3.21418307356505       2.81795692933005      -3.36293021046524
H         1.59374997115201       3.03249138534813      -4.04320229935662
H        -2.54715287138913       1.02157184147891      -1.95337796208354
H        -3.68577423688554       2.33531559225410      -1.62427112973214
H        -4.23989711920225       0.87481537225929      -2.45588569057487
P        -0.94037614201208       5.42271874315307       0.28478529579203
F        -1.93164616965911       4.24282781896047       1.03347949774587
F        -2.15880901435350       6.54604479555286       0.28566353352522
F         0.34463868998743       4.26955639998330       0.28869141954740
C        -0.50598020087591       5.89309009482585       2.14117007175868
C        -1.71083340588897       4.55125291718150      -1.34313158122025
C         0.25670388833520       6.65903813233553      -0.73373237704225
C         0.45191201378590       4.94927260625160       2.91555294493809
C        -1.53900096809550       4.87423863769767      -2.85522024374295
C         1.09031383599872       7.85780305913467      -0.20449115966888
F        -1.64732646122056       5.93822943390607       2.84610964661196
F         0.04033516146340       7.11915712612677       2.20706504019970
F        -3.04471568106765       4.56577760348538      -1.15888977517303
F        -1.33555955223645       3.24272020399841      -1.25520142888502
F        -0.55604556983811       7.17876093916037      -1.67713083733633
F         1.15485878596399       5.88089897520173      -1.37927942619017
F         0.52335592279340       5.28859784253521       4.19916556796617
F         1.68275736599863       4.98605695246065       2.41148041447498
F         0.03217237168591       3.67381220909618       2.86390962054087
F        -2.11706164617037       3.87958258122953      -3.54712991276884
F        -2.14147858951114       5.99984427584183      -3.20420609516840
F        -0.26652101089487       4.92189001938497      -3.23473292586346
F         0.32801925119504       8.78971403314624       0.35159576782087
F         1.73856135691791       8.41937526579457      -1.22658210994920
F         2.00441830586147       7.45423278390392       0.67572632540623
