40
C10H22F6NP optimized with ForceField in AMS.
N        -0.50804807263565       0.00922807185218      -0.00268683441062
C        -1.43121754992859      -0.55791036191025      -1.03381448639485
C        -1.40410896126189       0.60708167525702       1.03437211181240
C        -2.83737821769167      -0.07538969710040      -0.73273496506854
C        -2.82561963264469       0.16203837799693       0.75095974154593
C         0.34195457539316       1.07529595900991      -0.62618434750695
C         0.30858643585945      -1.08487243162606       0.61742289117769
C         1.35798069465197       1.73200554767757       0.33929120175402
C         1.30224331142670      -1.77189049652392      -0.34966879188246
C         2.06759997127272       2.90431323231260      -0.33216196314121
C         1.97266098717528      -2.96890761032701       0.31874898030446
H        -1.15282629529465      -0.27785932928216      -2.07537090435734
H        -1.46066051359579      -1.67154469270196      -1.00778139178183
H        -1.12121309859720       0.32381998875049       2.07310139285097
H        -1.40342968073906       1.72102908351850       1.00283710185742
H        -3.03094008519570       0.88063876020301      -1.26750652902577
H        -3.60602885458854      -0.82690997328734      -1.01730986170829
H        -3.03797604671307      -0.78840850858361       1.28849516584606
H        -3.57010989433150       0.93409766049116       1.04453843523425
H         0.89981463953165       0.66950483694112      -1.49865840307912
H        -0.31403957399679       1.87462494225147      -1.04301562497016
H         0.88097541808233      -0.69871404768608       1.48945976348764
H        -0.37199925994975      -1.86347939422622       1.03411581074680
H         0.85390772746503       2.10552863651653       1.25498574064374
H         2.13344980953642       0.99996496981241       0.64622132514882
H         2.10166267088182      -1.06490421801360      -0.65402391006731
H         0.78593109247620      -2.12566529848698      -1.26624454970160
H         2.62884588630012       2.55333599407082      -1.22453547631364
H         1.33215726237366       3.67718567081862      -0.64127451134424
H         2.78510148406106       3.36363341011348       0.38040777315919
H         2.54324333672100      -2.63961205376220       1.21349718545441
H         1.21222943481597      -3.71892841609887       0.62369979274230
H         2.67640975212500      -3.44836417197827      -0.39425281127412
P        -1.31039218863229       2.38249806970023       5.35747153184902
F        -2.20104270273980       1.64612631109744       6.62849409954955
F        -2.16507908044528       1.37079364736746       4.26463188498298
F        -2.49994688101954       3.59650908221889       5.10883572635760
F        -0.37508411726887       3.05951412292515       4.08534226213982
F        -0.57844763174895       3.40135342328873       6.53093793974219
F        -0.06280762473027       1.21556990340318       5.53849925614081
