42
C10H22F2N2O4S2 optimized with ForceField in AMS.
N        -0.09129209887825       0.01854124989361      -0.08220490571793
C        -1.00995114966619       0.52647366640345      -1.15364232846185
C        -0.59013867514170      -1.31372595865144       0.39376832594046
C         1.25263288270344      -0.17661822640813      -0.72863788735437
C        -2.48936785014255       0.59171061530455      -0.73692120691653
C        -2.06778056211092      -1.31241924322898       0.83366628231737
C        -0.01181863658891       0.96927528059560       1.08114524033562
C        -2.97059224272922      -0.77789745625238      -0.27181906177690
C         2.39483390440254      -0.62964060428027       0.21481001729617
C         0.57953990386517       2.35723633675413       0.77272114453797
C         3.68986685400833      -0.84381078935741      -0.56556988565251
H        -0.95720103424953      -0.13733461699039      -2.04850665245234
H        -0.69768415056170       1.52758379856659      -1.51708860211962
H         0.00253712383525      -1.67447160813147       1.26163622903912
H        -0.48310579048818      -2.07939129667652      -0.40884381410609
H         1.57499603398539       0.75620953520357      -1.24298172097117
H         1.17346701693452      -0.93584164981068      -1.54131862119756
H        -3.09851538857248       0.90438252568740      -1.61252412936111
H        -2.65176470284624       1.35157948257626       0.05493585882797
H        -2.20558082001368      -0.71936327282839       1.76109073682242
H        -2.37558448820961      -2.35339238409385       1.07171871006766
H        -1.01008318785292       1.14724028979950       1.52309942971520
H         0.57963522441055       0.52250248931152       1.90951514443091
H        -4.01349653729360      -0.70165669352857       0.10226293215137
H        -2.96529165723089      -1.48632399021705      -1.12962349493738
H         2.59590887159294       0.13599060093661       0.99127034856528
H         2.14246618125172      -1.58664420345234       0.71371582972852
H         0.61144093347952       2.94774160395032       1.71295034227037
H         1.61917484996922       2.29440526081836       0.39517542458477
H        -0.05254843259784       2.92219240534586       0.05944885033825
H         4.49608047448111      -1.16001176225431       0.13004732001189
H         3.55351070902368      -1.63698778081204      -1.33174074002864
H         4.00200197345659       0.09895378768035      -1.06375530390050
N        -5.66576647911467       1.54763243706734       4.09929161534174
S        -4.81335889163060       1.90078746352582       2.74817651340838
S        -5.42740671140356       2.37502975162987       5.49084610012992
F        -3.21166653384358       1.47519701840706       2.97834055521935
F        -6.11927573501535       3.89372861239599       5.35764292354806
O        -5.37560955973774       1.13722770807574       1.58397615312460
O        -4.88814026276257       3.37536281715970       2.46818271992290
O        -3.95520162779416       2.53133978337860       5.75039834505535
O        -6.06621938822336       1.63599855140643       6.63157328512287
