38
C10H20F3NO3S optimized with ForceField in AMS.
N        -0.41037090203318       0.16799593783449      -0.07444059724255
C        -0.97653328210570      -0.88528505324974      -0.97294364941171
C        -1.47510282724616       0.42084687150306       0.94453168391504
C        -2.44250882692361      -1.06831236471975      -0.62739004602194
C        -2.51852688227795      -0.67206077037776       0.82006234144534
C         0.82062977014152      -0.34242021911300       0.61249486079012
C        -0.14731946482617       1.41196005101930      -0.86822523679294
C         2.01173435412031      -0.63201499190534      -0.33148317618082
C         0.44963746238374       2.57546837052779      -0.05567610560742
C         3.14671786141965      -1.31856068614863       0.42379347954229
H        -0.48620830394587      -1.87483610746791      -0.82513384150373
H        -0.87084489040565      -0.64448097897773      -2.05584859967790
H        -2.00076901841185       1.38857186903145       0.77324118417117
H        -1.08718010920003       0.45777164458941       1.98841341899405
H        -2.77894235428158      -2.11682646365303      -0.78326440188042
H        -3.06504503368475      -0.38015817729053      -1.24134176286373
H        -3.53404664518760      -0.31094386118230       1.09390243872812
H        -2.24099803682245      -1.53551552572674       1.46478140043759
H         0.57384863663742      -1.27831796589900       1.16628793134354
H         1.16179232036231       0.37811326635399       1.38862882664524
H         0.53487855146877       1.20071160470540      -1.72047856874591
H        -1.09465324651295       1.77165155540870      -1.33240529573806
H         1.70569968017174      -1.28563998084826      -1.17425742256369
H         2.40788270911896       0.31394817901485      -0.75428695184930
H        -0.15685791491100       2.80266257203470       0.84431169818438
H         1.49228822603184       2.35691057144152       0.25156440184917
H         0.47414866637805       3.48578461554978      -0.69107565104105
H         3.52759530769271      -0.65697754405438       1.23078013695970
H         2.79641959845751      -2.27506088744423       0.86640652196873
H         3.97865643973003      -1.54130466343063      -0.27429267733067
S         6.90959907618423      -1.15645874372961      -2.00840602925643
O         7.92025203264756      -0.01828596468875      -1.80374635038585
O         6.71831493605788      -1.71368814495076      -0.59005162183847
O         7.74393225762017      -2.24340718913555      -2.70208642554453
C         5.38640066779516      -0.68627920684321      -2.87195609425956
F         5.69675072837019      -0.24583298097060      -4.14383762916644
F         4.75749575988799       0.32738216232323      -2.17567152866136
F         4.54707335859877      -1.78062366443022      -2.95565432061001
