37
C11H24ClN optimized with DFTB in AMS.
N         1.87249297509534       0.26417229003063      -0.17227981955720
C         2.22226068148019      -0.99505147021926       0.54979537765976
C         2.91699003367426       0.36444667144661      -1.24349008112419
C         0.51754794588913       0.21234590847121      -0.81401473972576
C         3.75129344660039      -1.03844761952884       0.56322590745362
C         4.20266996341231      -0.11979765219555      -0.58617010079716
C         1.98111593931920       1.43750472011180       0.73869532015531
C        -0.63629000363731       0.13232998262744       0.17926960094804
C        -1.95283286619674      -0.02769932100122      -0.59083758094523
C        -3.14665076611924      -0.08259177404155       0.36631474249966
C        -4.46379718659829      -0.23634896367735      -0.40072610060265
C        -5.65792544459180      -0.29536245057389       0.55022906591936
H         1.80960977825567      -1.83263790236856      -0.01742016418483
H         1.78347266308677      -0.98322309289383       1.54766623197341
H         2.94038551746755       1.39552124764047      -1.60736882735147
H         2.61891916809967      -0.30044046283497      -2.05704495876424
H         0.51126345091329      -0.66351417191164      -1.46884972438638
H         0.44496140450640       1.12028544124663      -1.42558257070352
H         4.09766053536032      -2.06316186512879       0.41736954777866
H         4.13954481794117      -0.68295334339904       1.51980134042472
H         4.78718429189998       0.71869867347383      -0.20292505108604
H         4.81734374770704      -0.65703872732519      -1.30996052057705
H         1.31211322120310       1.30151088787711       1.58481042100668
H         3.00586011242243       1.51832955223171       1.09281786872165
H         1.71015560527304       2.32737520153437       0.16390025425425
H        -0.50224433027379      -0.71584314357557       0.85869755814766
H        -0.68652019062017       1.04540846311740       0.77767501141212
H        -1.91755236471069      -0.94505998281928      -1.18843097218386
H        -2.07161915679707       0.81591006810941      -1.27763521326071
H        -3.17640640084895       0.83556995041673       0.96268171515164
H        -3.02338780465067      -0.92497715191713       1.05634036646103
H        -4.58535674910317       0.60910957684264      -1.08575293472032
H        -4.43053403441080      -1.15166523150628      -1.00147559589150
H        -5.71984112918410       0.61826569391471       1.14303282750580
H        -6.58225791780595      -0.40434676527198      -0.01732216524356
H        -5.56496326095420      -1.14402711149936       1.22957789783761
Cl        1.42058946319574       3.09757099359657      -1.92690484010530
