47
C13H13F18N2P optimized with DFTB in AMS.
N         2.05087879045153       0.26293669036763      -0.58130706455553
N         0.65617945115881       0.18613841291152       1.05815428826988
C         1.74236291584417      -0.38312119456509       0.53993555892260
C         3.25800499613219       0.08209303984272      -1.39371651351986
C         0.03581853895370      -0.18873315154702       2.32767823013418
C         1.15332105712758       1.27846648601147      -0.77175630002541
C         0.27164663749221       1.23006157339707       0.25997993024683
C         3.89576924391875      -1.28063165218481      -1.18561910238747
C         0.14595113379330       0.94900764085326       3.33550103172357
H         2.27560804110251      -1.21020624476978       0.97315299615925
H         2.96966739082700       0.22475712529367      -2.43919568496288
H         3.95483496137345       0.87596270665914      -1.10677568362108
H        -1.01181590305907      -0.43849664756991       2.13182329475082
H         0.55474975710268      -1.07829529614354       2.69279351973704
H         1.22432654902613       1.95123825067102      -1.60776523004363
H        -0.58010649747535       1.84587447384656       0.48802795490807
H         4.26611048932572      -1.38691770986150      -0.16724511442820
H         4.73931529506159      -1.37218851487293      -1.86850282890027
H         3.18508570988168      -2.08037724781117      -1.39501277135179
H         1.18955284785389       1.20018141468357       3.51170421867077
H        -0.30575232507638       0.63136636153332       4.27398750903289
H        -0.37219557227379       1.83595564353797       2.97433114439733
P         4.68516691180216       1.60234093191985       2.41178786789540
F         3.25802311022761       1.71564711372896       3.32093136487633
F         3.86146113741322       0.51645069519805       1.36298334376144
F         5.48856223120090       2.65953538561338       3.41445001961511
C         3.98563427448070       3.12463702091299       1.37835759049080
C         5.10395254806657       0.10861396343207       3.61367561586893
C         6.24170862104294       1.34468842011016       1.19776105011342
C         2.86456670361096       3.99356596631003       2.01021314599692
C         4.31898369455856      -1.21472381309878       3.39493996235093
C         7.62559015344064       1.98210768999157       1.48741775699165
F         3.46286052991876       2.72444113236867       0.18922605821905
F         5.00440015530989       3.95079322376621       1.09686832128902
F         4.83445845437534       0.49439836875170       4.87125826783645
F         6.40873104680970      -0.20903334641595       3.57466404840880
F         5.87728247745472       1.76594616294138      -0.03619070910698
F         6.43688667832058       0.01295616315659       1.08515680484876
F         2.68435418098191       5.10246913933072       1.28864692821972
F         3.12118388812625       4.35289131044215       3.25658312221434
F         1.69956391586349       3.32482880479270       1.99021681747221
F         4.55209946112649      -2.07663176343438       4.37999801914337
F         2.99216926409206      -1.00294424177706       3.35767653308433
F         4.65017016120557      -1.81054474990436       2.24773784725028
F         8.52047972104289       1.56126053411335       0.58983899501252
F         8.06816146769597       1.65042028281137       2.69473923118549
F         7.56384357298978       3.30701553475551       1.41309299110464
