38
C10H19F6N2P optimized with ForceField in AMS.
N         1.90572536848775      -0.94025501905044      -0.23661947289605
N         3.13582442330742       0.90787057943640      -0.12455649321749
C        -0.37409083182248      -1.88010574942212      -0.06816409332746
C        -1.04523490844424      -0.52459419085382      -0.32999813544282
C         1.00113096577270      -1.97161671078387      -0.74262429506999
C        -2.44290850141037      -0.46611844356064       0.29409419260619
C        -3.09190328131704       0.90046951703413       0.04438251760417
C         2.36543319913070       0.13208917700548      -0.91097951786831
C         2.40521308996756      -0.84020723717847       1.01231499370651
C        -4.50609946829664       0.95371580227480       0.61390103677130
C         3.16913950183635       0.30713947978702       1.08107374578133
C         3.77109275784590       2.16887066158694      -0.48375504183518
H        -0.26250298258610      -2.03972120972401       1.02643335958636
H        -1.01685457527581      -2.69396888834429      -0.46895006883532
H        -1.12330360755333      -0.35855449266685      -1.42738440740942
H        -0.42342484132833       0.28721480412397       0.10674503130681
H         0.87903705778570      -1.86624812102812      -1.84340523231910
H         1.44297433601732      -2.97275435746033      -0.54866131934403
H        -3.07692150130253      -1.26635431143372      -0.14675437639663
H        -2.36588010296146      -0.64149697195306       1.38983090451112
H        -2.48009933401349       1.69650446058360       0.52267508392083
H        -3.13689317699065       1.10259207328914      -1.04793256109848
H         2.12341636129831       0.35567141044138      -1.94298013564853
H         2.21439613807104      -1.53801164247433       1.81714426027318
H         3.69567770767672       0.68208936787594       1.94918023029018
H        -4.48914900686034       0.76592879871494       1.70856304168937
H        -4.94173997177728       1.95893983324017       0.43262288837866
H        -5.14867659437497       0.19412347842601       0.12011471726392
H         4.87010137177994       2.08375792583643      -0.35271344826765
H         3.55275068726666       2.42777920949906      -1.54181786085376
H         3.38585505799331       2.97965120474821       0.17001812053393
P        -3.83527530019526      -2.47359576829720      -3.73666311269361
F        -3.95006890643271      -1.13542314125727      -2.66754681986237
F        -2.98070104735457      -1.47721961108174      -4.84433118407444
F        -2.33806268423006      -2.96111006929218      -3.05008706339640
F        -3.78989000314231      -3.74796282292412      -4.88753664037405
F        -4.61833373401154      -3.49079877568907      -2.59529395785354
F        -5.35427148565582      -2.00630983292799      -4.38836691013923
