50
C14H28F3NO3S optimized with ADF in AMS.
N        -0.56297811214451       0.49905007488337       0.07724305929270
C        -1.74574166273589       0.17288942296078      -0.82622308602440
C        -0.99538415383092       1.57847023673600       1.05958583655061
C         0.53840666603863       1.04109638168842      -0.81261334192627
C        -0.09870769587716      -0.72807267115682       0.85163525967961
C        -2.98827283139762      -0.23560796570595      -0.05923688778982
C        -2.23467905915170       1.20143071978352       1.85171529241798
C        -3.40334131756794       0.84561960821549       0.93617807620428
C         1.85416527123808       1.36109786823424      -0.12394589171506
C         0.45473831567439      -1.85600706826377       0.00360702449756
C         2.86873960345184       1.91108158132369      -1.13107991679405
C         0.86345899158434      -3.01739824850623       0.91656308255876
C         4.19769638391459       2.25677502837106      -0.46496930549898
C         1.44386188082022      -4.18265028231093       0.12314844629995
H        -1.40564245251432      -0.60967831002758      -1.51813150704297
H        -1.92496458162312       1.09547132091604      -1.40489148693351
H        -1.17595354684340       2.47619986325845       0.44341428890285
H        -0.13845764140301       1.76530103838123       1.72049962596800
H         0.12318720867163       1.94561195591150      -1.28531540930621
H         0.69151636679814       0.29283370529006      -1.60409213714137
H        -0.94728448729642      -1.09412810612535       1.44091258941994
H         0.65095697935942      -0.36280603152967       1.56846030914671
H        -2.84001699171522      -1.20012236627000       0.45671696093348
H        -3.78399006139987      -0.40222689068182      -0.80523143189892
H        -2.48594883010616       2.07201097854780       2.48126293472272
H        -2.02121243523971       0.37153475378392       2.54624356141996
H        -3.73647752662862       1.74736566054120       0.38678874538757
H        -4.24241761736028       0.47917664940388       1.54600715375850
H         2.27537345610266       0.45767834586159       0.34638390812163
H         1.70737587299471       2.10800456352202       0.67335371932846
H         1.32615504925556      -1.53436590377172      -0.59470147280417
H        -0.31423996813864      -2.22559005871783      -0.69613513733201
H         2.45369280948139       2.80990348304621      -1.62186793155209
H         3.03547638902241       1.16653863696626      -1.93000148532315
H        -0.02542765030630      -3.33974542819918       1.48402905397756
H         1.60412965190172      -2.65884329998880       1.65419603604402
H         4.64369639974567       1.36847030499709       0.00986630586429
H         4.05928147154918       3.02170065502494       0.31508588053465
H         4.91911664029779       2.64775678273569      -1.19777845045671
H         2.34312561549048      -3.88113513005265      -0.43927314931283
H         0.70690940468842      -4.57236052889121      -0.59753374833717
H         1.72441183005030      -5.00915602856278       0.79264178824693
S        -2.72874790741583      -2.37833828860025       3.15163496922776
O        -2.44793466284896      -3.02214969837878       1.84422727121661
O        -4.00779645030478      -1.65640715833100       3.22782072859536
O        -1.56158804038829      -1.66278712757225       3.71462849869433
C        -2.96995793101662      -3.83636947727231       4.31239844678899
F        -1.84277873651060      -4.59847274555017       4.38944839935726
F        -3.98257259031202      -4.63600355131142       3.88457703062926
F        -3.27289641435365      -3.41473950920600       5.56879583750139
