46
C14H29NO2 optimized with ForceField in AMS.
N        -1.62923115459714      -0.29452051049336      -0.18821368560758
C        -1.90842143478422       1.11554780940206       0.22366449337301
C        -2.64407034822785      -1.22011975034775       0.41083423086041
C        -0.29280273536304      -0.72540472265703       0.34344824202311
C        -3.35231606902064       1.56481070210375      -0.06174873587616
C        -4.10787744331731      -0.80849706054026       0.16190878886056
C        -4.35148186460324       0.62877273633588       0.60831948317799
C        -1.63761332034541      -0.42517202947169      -1.67113599355093
C         0.93149735291413       0.05982170906773      -0.19048899215233
C         2.22855310020659      -0.47449044537450       0.43321516013069
C         3.45625011643431       0.25958956607499      -0.12030296589278
C         4.74780202537450      -0.29624280448459       0.49074145899754
C         5.97445264307439       0.41802062660212      -0.06926995602043
H        -1.23723652993327       1.82541239775405      -0.30601307751524
H        -1.72078149291693       1.24290322394125       1.31470201493417
H        -2.51009601674416      -1.27568662955101       1.51658868736915
H        -2.50421232312241      -2.25556637364057       0.02409347040917
H        -0.28354313270889      -0.64471661774466       1.45543922159200
H        -0.12648385567549      -1.80343948786264       0.11097404570905
H        -3.49783890696821       2.59294425124485       0.33465739220426
H        -3.54131058943967       1.60537947265010      -1.15565841376897
H        -4.38609117874335      -0.93201282302798      -0.90522477252538
H        -4.77413153439066      -1.48204552280018       0.74351462072087
H        -4.24786008150796       0.70030439206622       1.71378439991419
H        -5.38612494622328       0.93240430663751       0.33899621201040
H        -1.00978366902174       0.35447252784910      -2.15263321709988
H        -1.26428442073989      -1.42447281360570      -1.98778846950882
H        -2.65026318086093      -0.30239325428012      -2.10073520378328
H         1.01034723655553      -0.05038108232766      -1.29179868945313
H         0.84463333078647       1.13660432789058       0.06213416090220
H         2.18806789437653      -0.34109949210544       1.53712295464678
H         2.32297917967108      -1.56088016788341       0.21189595395059
H         3.37441907755675       1.34420567050383       0.11387509251511
H         3.49153529998036       0.13783263788792      -1.22577374865397
H         4.83123906610708      -1.38243973552498       0.26704843068518
H         4.72628616778774      -0.16526866833135       1.59487011455198
H         6.02972108114157       0.28327145023634      -1.17060625759231
H         5.92945097388859       1.50278101293664       0.16599024071614
H         6.89312084460953      -0.00734986189104       0.38690320530821
C         9.29078601029438      -0.48278280391441      -2.50978362310079
C        10.01641678067602      -0.14287272414848      -1.24622897346677
O         9.60199353671795       0.75208322247157      -0.52775125018556
O        11.02325029648323      -0.75647556639965      -0.93048385993291
H         8.25548982372442      -0.80424751060403      -2.27008850554556
H         9.25333520303525       0.40979003055591      -3.16920624353103
H         9.80661467585928      -1.30604767109991      -3.04939613829896
