37
C11H20F3NO2 optimized with ADF in AMS.
N         0.13587652300525       0.14503773046178      -0.28084024868352
C        -0.87855198267526       1.05406239289780      -0.96578605934701
C        -0.52103720408129      -1.18664585631226       0.01057583405678
C        -2.14793676689429       1.23140576881003      -0.15911378384114
C        -1.81433926207879      -1.06323237892324       0.80786909133748
C         0.64656151244372       0.74253322225999       1.01868009365681
C         1.27275022940945      -0.04301056102459      -1.28209986617175
C        -2.80760419379814      -0.11832343950713       0.12818692277432
C         1.36751061328831       2.06710285159183       0.88243802391622
C         2.46028821032546      -0.83190939980965      -0.77357751134392
H        -1.10223946772279       0.55562697115123      -1.92211188887168
H        -0.33820775632149       1.98226277440101      -1.22793793688281
H         0.21738536298723      -1.81128946194812       0.53229400260045
H        -0.72405128258641      -1.63328361354415      -0.97578073586313
H        -2.81341418355712       1.87687969258181      -0.75625970138274
H        -1.95284517316755       1.78191767770209       0.77795152122656
H        -1.60471119858747      -0.72850994603516       1.83784245745223
H        -2.23570454091468      -2.07883273027179       0.90010878912087
H        -0.22702001265539       0.84537248862767       1.67369682191533
H         1.29600604023753      -0.02849521420661       1.46042892557402
H         0.80490922278632      -0.54185104878749      -2.14397177959749
H         1.53834011692009       0.97901542973668      -1.61355424424716
H        -3.70849692691081       0.00177859562782       0.75096073444780
H        -3.13566382705461      -0.56579274836606      -0.82809160299541
H         1.68652963365331       2.37502614997151       1.89054112337095
H         2.25429221563146       2.01184190608927       0.23881122561361
H         0.72993322853948       2.85528220642344       0.46243741507644
H         3.16619178069114      -0.92436456190073      -1.61346081104519
H         2.99735804119059      -0.31944171808333       0.03704753625076
H         2.20743008742653      -1.85272239677025      -0.44980432030143
C         1.14689211223828       3.29763300368834      -3.25252034615008
O         1.20675644594664       2.88681698703896      -2.05025600016158
O         1.80059688255553       4.14597628890674      -3.86508689536472
C         0.02157809537702       2.56944950127995      -4.08401421166469
F        -1.23769088551736       2.78925902561699      -3.55091389759924
F         0.18759871492516       1.18623198089267      -4.07546198757941
F        -0.04208735405506       2.93162583763291      -5.38696169909654
