42
C10H22F2N2O4S2 optimized with ForceField in AMS.
N        -0.12932318694196       0.02207194276725      -0.06353426774668
C        -1.04170089721725       0.52706669324953      -1.14126348403315
C        -0.64739280183052      -1.29550954650401       0.43065964555541
C         1.21061683797866      -0.20105733837441      -0.70863905139318
C        -2.51814230197195       0.62551444054505      -0.72190004657942
C        -2.12221599032890      -1.26190307879238       0.87966237386878
C        -0.03549729696920       0.98811517850240       1.08650027080672
C        -3.02387742566188      -0.72493965420159      -0.22655427897208
C         2.34618233497580      -0.66169365524522       0.23871065233000
C         0.58261742072798       2.36004493193551       0.75901130663801
C         3.64534311005117      -0.86609413768785      -0.53591967410131
H        -1.00301291100671      -0.15310354219485      -2.02452324984484
H        -0.71313705187985       1.51643601988439      -1.52235290778844
H        -0.05415977073604      -1.65665729535733       1.29812046419089
H        -0.55855134928362      -2.07174215943554      -0.36414255458139
H         1.54573413432919       0.72123162948186      -1.23399783089299
H         1.12013172400038      -0.96821262351248      -1.51271878789787
H        -3.12410300451888       0.93105973773138      -1.60224764674814
H        -2.66481382716129       1.40439399687416       0.05428373058971
H        -2.24418161109806      -0.65402996969653       1.80036142427796
H        -2.44680099210975      -2.29422144326065       1.13300029057985
H        -1.03151785241732       1.19100013745426       1.52509782513778
H         0.54548855700881       0.54261562794443       1.92286490678511
H        -4.06067108754964      -0.61534296188952       0.15818866961921
H        -3.04406384641029      -1.44818511407675      -1.07170513239802
H         2.54394427147073       0.09654280903611       1.02291501730995
H         2.09000234166054      -1.62361247646815       0.72664581270607
H         0.61756361632341       2.96624190746180       1.68903742548662
H         1.62410144449222       2.27216113079798       0.39150248409471
H        -0.03321369244476       2.92314497899768       0.03026870447106
H         4.45452571964395      -1.16694236443139       0.16310307143831
H         3.52096129777082      -1.66433710489393      -1.29873740917530
H         3.94344698592881       0.07883965008933      -1.03755726899587
N         8.87585674821931      -0.69102951564575      -2.70796556566707
S         9.47312165265209      -1.46305184230091      -1.39397839685048
S         7.28055425968895      -0.73706881674623      -3.06870110566039
F         9.69909112909077      -3.08102532140665      -1.75982575846764
F         6.43311157802174       0.15275420180013      -1.93303503888801
O        10.79236061450720      -0.85568562244869      -1.01118865978355
O         8.51135620238042      -1.35110554910360      -0.24404415612581
O         6.79074979029628      -2.15777679528788      -3.04098942276088
O         7.05361028551861      -0.15056174939097      -4.43262921693364
