29
C7H14F3NO3S optimized with ForceField in AMS.
N         0.57897252298017       0.00329901452649      -0.00440457256927
C        -0.31065492610369       1.07756479386961      -0.52462797335434
C        -0.31453898817234      -1.06394918168057       0.52318138523907
C        -1.72838724467327       0.75517152070818      -0.08661043580016
C        -1.72927535857791      -0.74257378940042       0.07695665301996
C         1.44867678153861       0.52848109643560       1.07511681328813
C         1.43331617526654      -0.53043320208245      -1.09146841939145
H        -0.30178857486514       1.12380306813852      -1.63890750059186
H        -0.02377755413358       2.09332193627573      -0.16732158675658
H        -0.30995284739675      -1.09811610311401       1.63791076562118
H        -0.02856878924833      -2.08397995002545       0.17723987626470
H        -2.48060882996217       1.08607394361581      -0.83567729904677
H        -1.93863055358548       1.23963865239816       0.89266037715664
H        -2.48538822749532      -1.07357751958127       0.82205916271204
H        -1.93375339886698      -1.22760946353164      -0.90327358805753
H         2.13718257916662       1.31180481053885       0.68604640128119
H         0.83979903691894       0.98295642801180       1.88907772770317
H         2.06512210317917      -0.28573576627337       1.51808377676293
H         0.81285460288561      -0.96470017442151      -1.90742001497430
H         2.06787518227311       0.27309728346045      -1.52827844173186
H         2.10194106176225      -1.33281509753154      -0.71072288205282
S         7.12811227740130      -2.06250203632438      -0.14765667684912
O         7.40412853759727      -3.57197693574876      -0.08649200282803
O         8.42818226916882      -1.49199960937935      -0.73297298419839
O         7.19046355821900      -1.63648678914219       1.32645316887313
C         5.61213554877169      -1.59263537821998      -1.02168872425663
F         4.52884949865823      -2.18303743401017      -0.40154435638203
F         5.68456866861756      -2.02231160600418      -2.33279336369126
F         5.46983794367603      -0.21855415140799      -0.99272166828974
