30
C8H13F3N2O3S optimized with ForceField in AMS.
N         0.07270356035207      -0.63873385655766      -0.44974066279358
N        -1.98211204036947       0.13603425443033      -0.10574947736543
C         1.44948115139957      -0.74403512544836      -0.93041477329257
C         2.44746783640655      -0.40466339628432       0.18266379376147
C        -0.82389560658290       0.31535303925766      -0.76932436927242
C        -0.53943407738180      -1.44581297780074       0.44043644525932
C        -1.81553587749006      -0.96521869025577       0.65244647238866
C         2.27433981743170       1.02794987154018       0.68647743993986
C        -3.16766641903713       0.98183325401037      -0.15913776774734
H         1.60894408581370      -0.05701398073100      -1.79078275014543
H         1.63422388630480      -1.77932486958467      -1.29018842111451
H         2.32538717229559      -1.11259918091535       1.03042067334609
H         3.47718295903094      -0.52543434387303      -0.21413012499940
H        -0.62843638195248       1.13444228539942      -1.45058838072654
H        -0.08848427811301      -2.30905330793618       0.91213598839467
H        -2.55700845908537      -1.37732545183037       1.32420669150519
H         1.27984593012399       1.15293132394015       1.16515705525582
H         2.36811149677470       1.74772043346439      -0.15450116965598
H         3.05602698501339       1.25586184104262       1.44093058395706
H        -2.98377396234690       1.87098039153172      -0.79948347784009
H        -4.01868967975490       0.40513994460356      -0.57798779443686
H        -3.42684552797477       1.32641257651833       0.86424639901458
S         7.41117292973543       0.18418142644808       0.92396031401078
O         6.69369218195310       0.58140934895400       2.22232269419285
O         7.20637144875108      -1.33661860911826       0.86375845165888
O         8.89592393985007       0.32033439416771       1.29197912600781
C         6.89681415636917       1.09781439394977      -0.55902347207697
F         7.14836108489413       2.44438667923389      -0.38248675753286
F         5.54641724513482       0.91008867406362      -0.77450733913559
F         7.60334008105400       0.63795028007990      -1.65327554735746
