31
C9H20ClN optimized with DFTB in AMS.
N        -0.14018587499392       0.15957125922168       0.14680677415904
C        -0.95728440987518       1.28199508073492      -0.42317587659671
C        -0.66266170637694      -1.15420168941604      -0.36178070862172
C         1.27038115686773       0.36242753507608      -0.34678147481948
C        -2.45204686394261       1.13539143754200      -0.15527396149427
C        -2.14262013852645      -1.34083373390699      -0.06586818508565
C        -2.97137006811879      -0.20805709649202      -0.66662887563301
C        -0.15761995555197       0.20752764590961       1.63664396522906
C         2.30361116021666      -0.62819897321811       0.18835853986007
C         3.66363149275880      -0.31452431115703      -0.43203554884365
H        -0.77564525380610       1.29379833754008      -1.50184053058156
H        -0.58015994127597       2.21231270264557       0.00904963564643
H        -0.08790914450419      -1.94391462454876       0.13687006826044
H        -0.48209420836617      -1.17540360798444      -1.44022862347713
H         1.55453998095068       1.38159452744521      -0.06607993147385
H         1.23019980911566       0.30520567849865      -1.43867482433311
H        -2.95842354596693       1.95567562634741      -0.67146730365846
H        -2.66247837667579       1.23721853482659       0.91251654785983
H        -2.30708398953667      -1.40321238013922       1.01259864645247
H        -2.44425961428230      -2.29544456772541      -0.50344192840820
H        -4.02220956358908      -0.32287219881624      -0.39091789023373
H        -2.90035196539867      -0.23638442763671      -1.75929515626959
H         0.28913497675774      -0.71748560825905       2.01611031842122
H         0.40436510473652       1.08000072659311       1.96490546136028
H        -1.18307284888055       0.27789766966673       1.98730651953154
H         2.37575217212503      -0.55702773282430       1.27494585023872
H         2.01735382907386      -1.65196204826818      -0.05761983398000
H         3.62409675831207      -0.40534821842023      -1.51869495975079
H         3.98345016493931       0.69746985276908      -0.17796369352264
H         4.40296741974916      -1.01813108767084      -0.05175727095276
Cl        0.73988574206504      -2.84769705503315       1.95406626021722
