61
C17H24F18NP optimized with DFTB in AMS.
N         0.53361393004266      -1.18579494928736       0.64593555655994
C         1.05328605444725      -2.39303482508468      -0.08386603323611
C        -0.19365825867702      -1.78058160029183       1.81459155705476
C         1.66273606221511      -0.32844819100384       1.14026786700519
C        -0.00656330819710      -3.47813875025116       0.08338378177512
C        -0.85635857160907      -3.04808412422709       1.28749048067985
C        -0.40287660790094      -0.43728464558312      -0.25488530249112
C         2.49367822455057       0.29679707554046       0.02196060224893
C        -0.97937150258711       0.83876875487297       0.34131022658862
C         3.83621257961296       0.77009524709939       0.59259408282199
C         4.66377101158031       1.50218593047794      -0.46698540989395
C         6.02764635046816       1.90577982217966       0.09029003911574
H         1.24541456723951      -2.13949534516198      -1.12603720674856
H         1.98681819008917      -2.68210960894111       0.39678732798248
H         0.55591654811098      -2.02310723478738       2.56701726423610
H        -0.89474677417787      -1.05685965710467       2.22750952919992
H         1.23385490524592       0.44124000400407       1.78544429080124
H         2.29281422189382      -0.97464726997963       1.75354931492255
H        -0.62131758385256      -3.57065933965573      -0.81440941445370
H         0.48250756407231      -4.43632513293977       0.26619024225398
H        -0.85941583673172      -3.81059540362943       2.06740712191677
H        -1.88942627067935      -2.85552686651646       0.98948034713973
H        -1.21050348444879      -1.12606253892595      -0.51265952049009
H         0.15064270723769      -0.19926911780715      -1.16608098511337
H         1.95974445633435       1.14155519363722      -0.42403687517327
H         2.68355912990430      -0.43768598437982      -0.76489260959216
H        -1.50401100519766       0.65192354390040       1.27645933683504
H        -0.20766549205451       1.58684301812742       0.51213999915534
H        -1.69377861819795       1.24416437861937      -0.37488949639512
H         4.39132611984435      -0.10097257078408       0.95014280656872
H         3.65876732447746       1.43201072389787       1.44631445938754
H         4.80339739755494       0.84829342972022      -1.33440364840862
H         4.12368641599357       2.39433290639997      -0.80309654914387
H         6.60311703734609       2.42793308131894      -0.67410522731348
H         5.90921959651493       2.56625666716009       0.95004892415235
H         6.58505096490433       1.02280337680896       0.40387050063982
P         4.30491049247848      -3.96807003706600       2.64459441110318
F         5.72305274637919      -3.67464629850336       1.83272771790334
F         4.93342019997636      -5.25238126680795       3.48863116200325
F         3.58033412009216      -2.63080909801893       1.81980755149753
C         5.03935325255557      -2.74838668849791       3.99321986708473
C         3.84851574724402      -5.18865044168938       1.12399076264320
C         2.46938798265337      -4.24841320740792       3.48403955055507
C         5.18175104389629      -1.24299370179681       3.64123053700106
C         3.12664300307135      -6.56061384145987       1.30880327862109
C         1.74320028149916      -3.38793785801834       4.55399564518163
F         6.27171792020742      -3.17312394254532       4.30750389535940
F         4.30432743864826      -2.80729844327578       5.12158654443780
F         5.00014700250146      -5.50541969708292       0.51513564837717
F         3.10013498563420      -4.52694273833019       0.20331612130230
F         2.35803651640253      -5.51873415935038       3.90086137207114
F         1.64059516074571      -4.12275145170231       2.39753546750953
F         5.80241655030400      -0.58824954493885       4.62034444133374
F         3.98475182138370      -0.66194933078010       3.47238105220783
F         5.87706804780460      -1.05862061833311       2.52256425930591
F         3.32898337648593      -7.30043800769009       0.21423479182558
F         3.57823690331172      -7.24612502202251       2.34822075477187
F         1.80570729167224      -6.41466399728564       1.43461445320389
F         2.08363895832060      -3.68187166264514       5.79335762180363
F         0.41510766970302      -3.57483780057744       4.44487581986944
F         1.94868400205949      -2.08051262119645       4.33794787463837
