37
C11H18F6NP optimized with ForceField in AMS.
N         2.37445755520205       0.03498183184105      -0.52864355224080
C        -1.44311204443927       0.05475238410294      -0.69384286520564
C        -0.04047170809738       0.02528259727913      -0.07599816725323
C        -2.52069774577723      -0.00948804662438       0.39547439429352
C         1.04757594926168       0.08319629456632      -1.15264707893283
C        -3.92558342491932       0.00856791677220      -0.21714632112948
C        -5.00058349711337      -0.05909629748553       0.86439689457302
C         2.96514178767341      -1.17513178012764      -0.28643047135309
C         2.99105584631837       1.19657091099189      -0.15300491758716
C         4.20213154304676      -1.24346241216448       0.35805786306019
C         4.22876276074910       1.16412512882765       0.49364232087127
C         4.83382101869941      -0.06510816310584       0.75350491180664
H        -1.56206435938693      -0.81223934422572      -1.38038115933845
H        -1.56776413895173       0.99087705259423      -1.28157435145961
H         0.08141959054716       0.89242701759433       0.60940451012682
H         0.08356297513967      -0.90935590813974       0.51391715876703
H        -2.39031808430305      -0.94218473909686       0.98780817516420
H        -2.40589266337129       0.86093257614618       1.07881959850443
H         0.93722837909468       1.01208173461304      -1.75613328840218
H         0.92990536372434      -0.77232992210721      -1.84989119018381
H        -4.06580772231393       0.94137567990822      -0.80566625319332
H        -4.04777920696447      -0.86031467861795      -0.90008192494395
H        -4.91837153571113       0.81395058587410       1.54648117027547
H        -6.00518214879089      -0.04619723036721       0.39141728477404
H        -4.89805007695469      -0.99538718599006       1.45353817749455
H         2.47387328904303      -2.09557906808871      -0.58038609324252
H         2.52027717031248       2.15442109781039      -0.34137064268628
H         4.66142707942284      -2.20323313798069       0.55666305944233
H         4.70935996869335       2.08471177251221       0.79834108724040
H         5.78717200046031      -0.10473026931724       1.26349518184032
P        -1.18626096012465      -2.07616997358961      -5.19667850600835
F        -1.09939804115008      -0.45625955325081      -5.76171620989078
F         0.29915933313709      -2.42871876107927      -5.98430228588513
F        -0.30667711318777      -1.61925969424107      -3.79862662409513
F        -1.25194199111501      -3.68577389410577      -4.60035486629470
F        -2.64974188558265      -1.71053180105953      -4.37466949727382
F        -2.06020969957089      -2.54276167596858      -6.59926813183396
