32
C8H15F6N2P optimized with DFTB in AMS.
H         1.81834081618574      -1.31815288689875      -3.16994064094229
H         0.09908162316844      -0.84774227418695      -3.21978926561440
H         0.55902298172257      -2.50397005447672      -2.74569151195442
C         0.84225346199332      -1.45174510742344      -2.70227441466734
H         1.94500225746732      -1.02925263477648       1.77068213981591
H         2.41857325044023      -2.38212894738389      -0.59767944963955
H        -0.54025101195537       0.55309878210828      -1.24994039130104
N         0.91411712865393      -1.03213825962332      -1.31395417045233
C         0.19174310994399      -0.05889394731199      -0.75137347781255
N         0.55118475120639       0.02561727117398       0.52608647120419
C         1.50937538266324      -0.90991380425438       0.79244631741279
C         1.74258070287131      -1.57771481511805      -0.36748536643863
C        -0.04739134227853       0.93082766311633       1.50577960490820
H         0.66689976547002       1.04277228756926       2.32223765173342
H        -0.20800789279837       1.89814789769350       1.02199464485545
C        -1.36375498391075       0.34559807498809       2.02520501831369
H        -1.19972319424783      -0.69762878821877       2.30532305924284
H        -2.11818039408088       0.37366307891431       1.23119294798952
C        -1.83378261151095       1.13299557985386       3.25210755751612
H        -1.05894276216296       1.08119525019400       4.02286804719485
H        -1.97590563719664       2.18491395831574       2.98129950221417
C        -3.13653273182823       0.56094760065349       3.80456400420758
H        -2.99464859072631      -0.47524096295415       4.11278631341818
H        -3.92554104222905       0.59601054244358       3.05109419592487
H        -3.45606288016136       1.14015295022283       4.67063724705336
P         1.98669961031394      -0.65121749127461       4.43819048833894
F         2.36674026700202       0.49786265128397       3.26161943619126
F         1.06362266677892       0.47380936688825       5.19703730474487
F         0.64200913469307      -1.07756939100084       3.51373258403425
F         1.58955216179037      -1.78781654544640       5.53025163489564
F         2.86539585696828      -1.75413641671576       3.56177817441241
F         3.30483562425419      -0.21741547375498       5.28128409130004
