35
C11H21ClN2 optimized with ADF in AMS.
N        -1.13874463089277      -1.72805009583078       0.24873838896333
N         1.01848724452102      -1.81456600645162       0.17441770627861
C        -2.48163483413561      -1.33746495601464       0.70685183036552
C         2.41981020710886      -1.54472684879109       0.51555546262153
C        -3.05461862723709      -0.22690957205608      -0.17074098377229
C         2.86020421939106      -0.15912711257587       0.04434941561850
C        -0.02391847987279      -1.45393558984888       0.94368096620054
C        -0.80739811829157      -2.26544938140300      -0.97917366090851
C         0.55590877635191      -2.31880388826535      -1.02937985097661
C        -2.16384175933504       1.01568530265625      -0.20610446083827
C         2.09426977962577       0.98051491859457       0.71361500638424
C        -2.82029364378224       2.17504810371622      -0.94990559929393
C         2.61497978047274       2.35470574776600       0.30511825266504
H        -3.11482333192516      -2.23876739165802       0.71035157652054
H        -2.33925863960442      -0.96979825024292       1.73976094306253
H         2.50059469156027      -1.62695800185241       1.60989103977885
H         3.02784647747002      -2.34377913616370       0.06394394546665
H        -4.04143197367114       0.03342245070085       0.25275817182872
H        -3.24318261888069      -0.59773032939756      -1.19670577217192
H         2.75881407326114      -0.09743387465101      -1.05570210454319
H         3.93952392868715      -0.06960613558242       0.26685502353564
H        -0.05839495619544      -0.86374660026877       1.92758980135154
H        -1.55651967314082      -2.57110715378861      -1.69907232267409
H         1.22438392057385      -2.68273044395447      -1.80048911705431
H        -1.91080886987423       1.30044063765007       0.83189118274087
H        -1.20694108635620       0.76121331560438      -0.69728033130803
H         1.02201571296498       0.91579492100624       0.46636848450388
H         2.13710941056740       0.86891665688690       1.81163145308016
H        -3.77123061151212       2.45920626105578      -0.47164295504154
H        -3.03740424763584       1.91066073182731      -1.99817392236818
H        -2.17155847980460       3.06382010214077      -0.95329743623621
H         2.52333779989218       2.51061627571914      -0.78197161316355
H         3.67616267665211       2.47858558410001       0.57498094949176
H         2.04313730909473       3.14680093569140       0.81092073616865
Cl       -0.68115284764740       0.42901169198133       3.20376699742354
