43
C11H24F6NP optimized with ForceField in AMS.
N        -1.37940114069333       0.17680582962933      -0.07336511826856
C        -1.63552952368943      -1.02438354883807      -0.92736206737782
C        -2.50328086401362       0.19778657391678       0.91251483687536
C        -0.07837405706266       0.02489270071593       0.65722560800743
C        -3.00832488756741      -1.57192299872511      -0.58438365593465
C        -3.22626883342698      -1.13204522618994       0.83540856891504
C        -1.41465308236561       1.41138414484993      -0.92282714257491
C         1.17128829173899       0.02718515272852      -0.25598187306483
C        -1.14218490996449       2.71924563738685      -0.15721687691205
C         2.42929229701791      -0.35243510694741       0.53440704072774
C         3.67114659632063      -0.33835845795671      -0.36433982429509
C         4.92608798633024      -0.70398244257315       0.42074823474855
H        -1.57979176069047      -0.80829782908084      -2.01872325572143
H        -0.90603925329098      -1.84417510004567      -0.73233266452279
H        -2.16910279404451       0.38661897597686       1.95819071599000
H        -3.25513811662075       0.98570011946942       0.67517785478947
H         0.04306805276029       0.83411802406320       1.41111868605512
H        -0.09083811721179      -0.92472534999435       1.24160793024630
H        -3.77516095151460      -1.11133768615847      -1.24595443302088
H        -3.04897257915371      -2.67947468682790      -0.67818178998947
H        -2.75677259326405      -1.85911093792306       1.53449138360345
H        -4.30873293717185      -1.03006312105347       1.06973924242825
H        -2.41077916100395       1.50474879718656      -1.41340164609564
H        -0.68198791561640       1.33973169722055      -1.75623320915046
H         1.32393094884283       1.03956997963666      -0.68465807377143
H         1.04444982938958      -0.68892948352615      -1.09426192297331
H        -1.79060091360481       2.81424064491559       0.73694638443553
H        -0.08019170865387       2.78706184176488       0.15365150657511
H        -1.34870436825219       3.58128983633825      -0.82568905216381
H         2.30099949881703      -1.37019589144437       0.96427173352724
H         2.56967976920218       0.37022414325963       1.36861195147215
H         3.54239666918974      -1.06997551089118      -1.19168227572562
H         3.80585226964753       0.67413636819194      -0.80470376970990
H         5.80626070279083      -0.68080127162418      -0.25563961573912
H         5.09151708256184       0.02240908622239       1.24477789683430
H         4.83081613630414      -1.72645763961455       0.84511066272161
P         2.17694916117787       1.28182017943129      -4.63607833123360
F         1.37896005002027       2.51402380300611      -3.74424832899941
F         2.40712977889244       0.29417437852728      -3.25326815820040
F         0.63347397171923       0.56321847736240      -4.86229184342096
F         3.00601424972589       0.04736938574735      -5.49570851215587
F         2.02259655367421       2.09498808654477      -6.14090314821238
F         3.63060699845375       2.12791143672213      -4.28760604271824
