23
C7H9F3N2O2 optimized with DFTB in AMS.
N         0.85685109893548       0.74762340132214      -0.02322207303713
N        -1.21957407535889       0.24305910644177       0.27386171897414
C        -0.10786159201093      -0.09728697790764      -0.39013128042485
C         0.32081796069061       1.71608294798420       0.79212737413453
C        -0.98360578128844       1.40194240315430       0.97506751446384
C         2.16392450758659       0.82635635137613      -0.65070339028317
C        -2.53360279490878      -0.28620875025388      -0.05223360811262
H         0.03390851665487      -1.00303624361641      -0.95126446824031
H         0.90939174363915       2.53652656406183       1.16236742633250
H        -1.75521089359296       1.88978109661254       1.54401632543414
H         2.46042644181321      -0.16582923388042      -0.98610899510693
H         2.08054727037312       1.50323006188441      -1.50632791964449
H         2.88688233128208       1.21376015486670       0.06530284779482
H        -3.24154823994810       0.01306913153231       0.71802124290793
H        -2.83013693991920       0.12500607846894      -1.02045428266713
H        -2.48145537712634      -1.37244241116686      -0.11253417564779
C        -0.65591897565291       1.86793765947507      -2.48283721009965
O         0.29618361181947       2.58185400984600      -2.20999240838072
O        -0.81868189670625       0.64069909259664      -2.36621456515254
C        -1.98079522860205       2.61012262467005      -3.00138871143253
F        -1.88010001502312       3.94281120336938      -3.00732515967921
F        -3.00472877183971       2.29974470841153      -2.16463858054232
F        -2.35688464091692       2.22776846155128      -4.22882820879052
