67
C19H28F18NP optimized with ADF in AMS.
N         0.73446115867932       0.08198312085409       0.62485206879491
C        -0.78123051999506       0.01587365292696       0.65607778368780
C         1.21674975973545       1.02011292287902       1.72492506925262
C         1.10805539031556       0.66389749059000      -0.72764778686821
C         1.36622235917785      -1.28850886926218       0.83322874130395
C        -1.34606608563558      -0.36721010850284       2.01202533679565
C         0.64745800274176       0.68174989095676       3.09355717031841
C        -0.87689613093858       0.61500093589291       3.08492454504570
C         2.58734217669410       0.83683125132702      -1.00848461258783
C         1.07021163165227      -2.31811307314514      -0.24195171146054
C         2.75572515936753       1.59823517251184      -2.32808969750242
C         1.58125598071661      -3.68978696787446       0.21621091877643
C         4.22180024487293       1.81883148373263      -2.68973915504024
C         1.44952927212001      -4.74613110716627      -0.87617369229584
H        -1.08602836465930      -0.67890087033687      -0.13800849007108
H        -1.12470752513787       1.02523554875427       0.37650996382646
H         0.90539044361945       2.02962840722941       1.40814134476395
H         2.31229223433424       0.96187089598581       1.73261048476115
H         0.59557552183065       1.63899762443032      -0.77127363321053
H         0.64230154987544       0.00966056399356      -1.48045861312530
H         1.01375378266590      -1.64210680343433       1.80861117605369
H         2.44688850447488      -1.11699202229164       0.92702952069498
H        -1.06025809074905      -1.39898265249305       2.27623088069324
H        -2.44491313712933      -0.36299991366514       1.91996593125756
H         1.01095704167429       1.45843437606064       3.78576962072517
H         1.07749459719739      -0.26112834942157       3.46011150336537
H        -1.29715210862520       1.61505682566639       2.86974243882522
H        -1.25192211677167       0.31380364642435       4.07517579186157
H         3.09485731750171      -0.13593991180782      -1.06923656456264
H         3.08412898586031       1.40106932964700      -0.20431924901801
H         1.57218686526809      -2.04806318244231      -1.18625657572342
H        -0.01115144192214      -2.39604373206575      -0.45129579613349
H         2.24238315895680       2.57415830911703      -2.24696007049347
H         2.24949955283965       1.04444476754659      -3.14016862072792
H         1.01721492549408      -4.00038699472377       1.11367480319641
H         2.63324116202264      -3.59707874331387       0.52638719658561
H         4.73246637307572       0.86267444387889      -2.87091262391840
H         4.75506528487773       2.32818808045383      -1.87223961289556
H         4.31336887564402       2.43588696190589      -3.59570119767164
H         2.04197270978860      -4.46837581821281      -1.76222349752100
H         0.40094805474168      -4.87288120128484      -1.19104325445220
H         1.81714218700394      -5.72059548123843      -0.52282405515393
P         5.41139171671985      -1.39200311320750       2.26839138465253
F         4.23715891966573      -2.58319251721042       2.08200913226554
F         4.43340166202067      -0.35667215663163       1.32826045495823
F         6.38177786635652      -2.36777600176915       3.19328808420897
C         4.43803099697387      -0.88016620192606       3.92480740578643
C         6.24854173356958      -2.20333976585360       0.65509765923869
C         6.66608078181639       0.16504601804046       2.38086652887833
C         3.53833542377201      -1.95985234675855       4.61681756100717
C         5.65557319173166      -1.90470549656663      -0.74965788433298
C         8.03827925681606       0.07985659362219       3.11992681215612
F         3.57550997008895       0.19440243768819       3.72795240076683
F         5.32069460154128      -0.50300492378779       4.90393782811170
F         6.17308431085043      -3.57561060155139       0.77847992912216
F         7.58556704120673      -1.90487875792107       0.54739572886038
F         6.00234596813381       1.22256742486130       2.97681007573236
F         6.96653951178356       0.58560058458726       1.10164369389438
F         3.12971042069761      -1.48707619516875       5.83131077939796
F         4.18235834722269      -3.12041596402656       4.82073673173604
F         2.39666576284360      -2.21277307028454       3.90613835393586
F         6.31211957869404      -2.62588937165926      -1.69834757378755
F         4.33751560436547      -2.25615754281810      -0.82504642735743
F         5.76189451450254      -0.60076593917102      -1.08735756453708
F         8.68330234413159       1.27646015326223       2.97734862622134
F         8.83843524100064      -0.87859139074876       2.60911145828039
F         7.88784740763796      -0.14736514168300       4.44201930685141
