24
C6H12F3NO2 optimized with ADF in AMS.
N        -0.17628383739715       0.02894223513443       0.08946403701679
C        -0.69473071835539      -1.22410996116181       0.71258741171408
C         0.28345158131784       0.98555471003713       1.15534053610789
C        -1.26172800327484       0.69482266340367      -0.71276661747551
C         0.98656005428284      -0.28239230280881      -0.81386508136918
H         0.10533200798696      -1.68523048651703       1.30541903890413
H        -1.54546524742763      -0.97428269170175       1.35937917002296
H        -1.01619537533952      -1.91028424079954      -0.08144649711893
H         0.55736184981955       1.92551218560959       0.64934774813848
H        -0.54984264660000       1.15109649656658       1.85040319976200
H         1.13908914169825       0.53654630867767       1.67500057567954
H        -0.86342160586272       1.67088619888897      -1.05432365223940
H        -1.53085582286176       0.03026277290051      -1.54332035921061
H        -2.12594986691013       0.85295217183665      -0.05413743007615
H         1.41586656592605       0.68543765323736      -1.15953869783460
H         1.72969375664068      -0.84280053265927      -0.23081357230982
H         0.61788677868630      -0.89643197601302      -1.64562468605074
C         1.25275428850924       3.36149767681440      -1.39199888932638
O         0.09121428415788       3.38416261901705      -0.90459607982922
O         2.10729448931539       2.44203319846874      -1.39745243371035
C         1.69000985178740       4.66242899588941      -2.14343611575873
F         3.01874341093406       4.93448384122498      -1.99214241814759
F         1.00813887361669       5.77322327136973      -1.74232759450518
F         1.46063152375001       4.51853116718435      -3.49310179128346
