43
C13H27NO2 optimized with ADF in AMS.
N         2.26514283492180       0.25779550980299       0.10093767483681
C         2.56285039571225      -0.53217700256150       1.36985215259139
C         3.30871694464636      -0.28266474594723      -0.84956803246522
C         0.87771058101222      -0.03641989891634      -0.44927838226434
C         4.08781124485866      -0.56463720118525       1.45026456738736
C         4.58283609516453      -0.42794308238031      -0.01554607801990
C         2.46217535071089       1.71852171324594       0.32155789303143
C        -0.25179476472320       0.43867462865205       0.44303082870634
C        -1.56969414679494      -0.21355417541032       0.00619473923038
C        -2.63379252299364      -0.09900706083092       1.09554395293730
C        -3.92881337919764      -0.82803898716966       0.75041561640851
C        -4.94332653855560      -0.76956226415536       1.88966758830714
H         2.09417779509605      -1.52722679953206       1.19703220473494
H         2.04619110577300      -0.07424795695544       2.22070154519720
H         3.39012446454791       0.38755924446905      -1.71684925964392
H         2.92525892870673      -1.26123263817472      -1.17334311891710
H         0.83213764844069      -1.14003774472285      -0.49067183789102
H         0.85092346135339       0.41007390935376      -1.45830671283663
H         4.40984110624517      -1.51033503908174       1.90916943976476
H         4.48870701353680       0.24977819810749       2.07413678130586
H         5.24237055829125       0.44517021703705      -0.13603682327104
H         5.14992041976626      -1.30817273775660      -0.34990284620507
H         1.76977880570483       2.04686555180808       1.10435924075566
H         3.49566046889492       1.90079219834211       0.63917577664737
H         2.25327066100442       2.25292311445311      -0.61527274090027
H        -0.05211750254234       0.06176031395936       1.46233069781982
H        -0.35483864366615       1.53820590676353       0.44812634081831
H        -1.37561175420608      -1.28501275984599      -0.17636629696354
H        -1.93308037408392       0.21969852502422      -0.94495507708478
H        -2.85393235712050       0.96609577860306       1.30412244824089
H        -2.20813297400288      -0.53263883944284       2.01884496470539
H        -4.36914208649739      -0.39991103750532      -0.16991405469451
H        -3.69161786173703      -1.88285157424042       0.52027575083312
H        -5.20220524666586       0.27455778202200       2.13102287642388
H        -5.87341523957938      -1.30068858065099       1.63568166104101
H        -4.52528514232434      -1.22766016123184       2.80064673662345
C        -0.92307630966927      -3.90630461519409       2.03732520817319
C         0.03741674456233      -2.74239635260369       1.75276153447166
O        -0.00371154304192      -1.76655757654923       2.55380481463824
O         0.77781615382870      -2.85334401806087       0.71325737310024
H        -0.93943437896580      -4.12682177328783       3.11500272313687
H        -1.94449385748765      -3.60173740890297       1.75499858563505
H        -0.65350244462363      -4.80490042434744       1.46608026045372
