38
C12H23ClN2 optimized with DFTB in AMS.
N         0.07417262798595       2.19187652049567      -0.12475273421856
N        -1.90995848643302       1.35679775870440      -0.14833159578312
C         1.45032836266676       2.48951519886881      -0.49588928061840
C         2.40725396315160       1.50163409733744       0.18009853296122
C        -3.09755576714259       0.60962219023782      -0.55629477596605
C         2.16815592838456       0.06147719882627      -0.28139725856014
C        -3.07759142945136      -0.79276762754429       0.05441027599037
C        -0.79656753607568       1.49305153141238      -0.86137728793539
C        -0.50132356851636       2.48471876364086       1.08630978556717
C        -1.75301078862580       1.95791635491708       1.06805424548023
C         3.11645515423406      -0.91545533747795       0.42054289645518
C        -1.86090345632732      -1.61339832126645      -0.37573201206273
C         2.84227871896192      -2.35449191472825      -0.01154217362433
C        -1.90226441849079      -3.01764874958416       0.22595213130015
H         1.67367291902376       3.51167644526207      -0.17873420229465
H         1.53051923317526       2.42694385539839      -1.58455526634659
H         3.42936403802357       1.80545477743059      -0.06308364479514
H         2.28258295254138       1.56918434219296       1.26485225540410
H        -3.96810819052086       1.14874297236272      -0.17041198889447
H        -3.11634775118880       0.57497052283563      -1.64883331087802
H         2.30825474872260      -0.00237107274607      -1.36607537767311
H         1.13335942037682      -0.22180821265524      -0.06149634907519
H        -3.99517477992997      -1.29537731864774      -0.26284577888013
H        -3.10973704130117      -0.69607607393802       1.14280763331717
H        -0.63010154257144       1.13372723832986      -1.86198565427319
H         0.02064172609754       3.04312092894385       1.84289906188484
H        -2.57218701068057       1.94469989911381       1.78611996137183
H         2.98737886308797      -0.82904798972309       1.50439721023195
H         4.15245016127453      -0.65169044939836       0.18377483307360
H        -1.82851215452229      -1.68366420297745      -1.46956739312278
H        -0.94317825620640      -1.11088450379990      -0.04797064698587
H         2.98107382777628      -2.46433133992659      -1.08785823463734
H         1.81922606771463      -2.63941842397546       0.23766686432934
H         3.52590735819128      -3.03275434964651       0.49858464378548
H        -1.92087395577648      -2.96259481529117       1.31458619384537
H        -1.02093441515921      -3.58172997336850      -0.08063130016749
H        -2.79238478583666      -3.54971359428129      -0.11057404555513
Cl       -4.54750483063370       1.29772695756588       2.17055244554981
