59
C17H34F3NO3S optimized with ForceField in AMS.
N        -0.02404396742553       1.98671225612632       0.00809686752145
C        -0.69623575967531       2.89513651889747      -0.97156383419125
C         0.62720280076617       2.89897642560125       0.99804181872617
C        -1.04162431498516       1.14133919766308       0.71335104334945
C         1.01139446049129       1.16954828570838      -0.70628149757547
C        -0.20934380046847       4.30919708307483      -0.71900163003208
C         0.13152623698812       4.31001211045065       0.74425495892611
C        -1.77892874881559       0.12593685618048      -0.19169980434014
C         1.77410052328225       0.16305500932334       0.18879359097358
C        -2.87829215613631      -0.59597903189825       0.59750240513716
C         2.85719247862986      -0.56461992466945      -0.61793894360749
C        -3.62915918619707      -1.60154027102887      -0.28269572038179
C         3.65041266489574      -1.53543544330595       0.26495769257585
C        -4.69307918255255      -2.34918396665320       0.52956761640984
C         4.72467264113020      -2.26492494467182      -0.55015730075465
C        -5.44894392763370      -3.35057300597551      -0.33829496129984
C         5.49571865321298      -3.25769587518197       0.31488072041332
H        -0.50842270577220       2.61583486564074      -2.03385150965527
H        -1.80327435984205       2.90718444132098      -0.84516198396842
H         0.43014665166356       2.61573651285054       2.05758313653708
H         1.73312904032410       2.91979718019925       0.88604312709135
H        -0.57161622646829       0.58391888046800       1.55337650429966
H        -1.80260196488345       1.80089166744148       1.19259424115621
H         0.55083282156941       0.60832349557448      -1.54909695147212
H         1.75779699112693       1.84925309996336      -1.18065645750070
H         0.70523222759647       4.50866927579561      -1.32070199994500
H        -0.98800928878039       5.06620696827426      -0.95892215955359
H        -0.78443726475842       4.50335667401822       1.34588561087251
H         0.90483433402399       5.07233687503458       0.98468300635164
H        -2.23611196459722       0.64003772855023      -1.06306608062712
H        -1.06748795678783      -0.63765069876930      -0.56907603793935
H         2.24976062158725       0.68700197716700       1.04420699525226
H         1.07745684976299      -0.60156331087236       0.58977697101014
H        -2.41709656098699      -1.13206195652153       1.45642454462134
H        -3.60003348004943       0.15150175184291       0.99464329049858
H         3.55265568541386       0.17945656958981      -1.06215566673597
H         2.37608211515742      -1.13083328269368      -1.44582997754880
H        -4.11817331934604      -1.06095449855504      -1.12309313577371
H        -2.90724747447411      -2.33474419580641      -0.70557501932783
H         4.13670867164397      -0.97029509782216       1.09072338399823
H         2.95441556043836      -2.28146276041437       0.70841814599935
H        -5.41869793778427      -1.62257715206032       0.95629599252083
H        -4.20828493961469      -2.89511803113816       1.36836987597677
H         4.24854776320946      -2.81592593086785      -1.39049115610879
H         5.43892620993415      -1.52559522234666      -0.97429332630475
H        -5.96960784835651      -2.82627420759109      -1.16773728101193
H        -6.20610323876816      -3.87967152339090       0.27808301801499
H        -4.74780253891158      -4.10150358909192      -0.76086378695058
H         4.80603465915911      -4.02078612072413       0.73470981384736
H         6.26084275573989      -3.77376001855551      -0.30272970894637
H         6.00809782473397      -2.72879147608770       1.14656123412130
S         6.61915215268464       4.22151307314279      -0.03352386637248
O         7.77764424348520       3.89532823693336      -0.98762900911400
O         6.56024056747980       5.75596847314641      -0.06319577997272
O         7.21088873959245       3.92099901107005       1.35162720476251
C         5.05612388778304       3.38181457158577      -0.39834657974442
F         5.23985870224824       2.01592681244615      -0.31205816834390
F         4.63872043234191       3.71306011871723      -1.67303371399730
F         4.10212062377456       3.77849472539513       0.51701567443275
