54
C16H29F3N2O3S optimized with ADF in AMS.
N         3.07823137174065       0.20232661029521      -1.82184744555028
N         2.65778533240111      -1.92336538776207      -1.84287456272767
C         1.90613883907101       2.29618791391741      -1.17341117428410
C         3.24300776132863       1.56857141191967      -1.30373719689374
C         1.13964220152129      -3.26262677186537      -0.41748427794928
C         2.33716971913653      -3.27781050904805      -1.35947281704364
C         0.94374278433510       1.64097242432102      -0.18181171852947
C        -0.12395258489742      -2.65515799103910      -1.02346892972504
C        -0.29226169494420       2.49276303525087       0.09992444262606
C        -1.25211291144686      -2.52286244838773      -0.00227051779477
C         2.74087113702246      -0.84314640771727      -1.05675594000498
C         3.21529922415467      -0.21787005669120      -3.12785670329724
C         2.95075294385109      -1.55922188590330      -3.14100977932309
C        -1.25503466983293       1.82420430495657       1.08164252110389
C        -2.50742909861936      -1.86086039298956      -0.56732008244127
C        -2.49026060102315       2.67309534701126       1.37277695860359
C        -3.61520955122301      -1.72200126940729       0.47464204660565
H         2.14097262558642       3.31974284870862      -0.83120140087146
H         1.42936343671082       2.39279737181798      -2.16616739526220
H         1.43056542959212      -2.73184439703660       0.50497258539856
H         0.95331470110502      -4.30769463299839      -0.11500735121574
H         3.92995594980398       2.08548529395833      -1.98845958807960
H         3.72734870190070       1.46127102772001      -0.32037281135317
H         3.23210390323650      -3.65745853146302      -0.84330294906615
H         2.13655104663549      -3.88297880736744      -2.25628394744217
H         1.47961170918077       1.43532405042977       0.76273902026382
H         0.61033042726165       0.66331557981486      -0.57519591669716
H        -0.46287786713374      -3.26930043127970      -1.87980590531580
H         0.09983135230367      -1.65252209555679      -1.43237976571281
H         0.02470500358020       3.47054755661728       0.50945042935440
H        -0.82222734031703       2.70879360399537      -0.84753744675488
H        -0.88734110386908      -1.93347577661890       0.85992269795776
H        -1.50997007261051      -3.52271088514223       0.39471194093426
H         2.64336862870169      -0.80446777741416       0.02399115965570
H         3.50193636050702       0.45952324236299      -3.92237420099537
H         2.96081437942460      -2.27913364705533      -3.94997807260699
H        -1.56512577980406       0.84590329877543       0.67319719814581
H        -0.71592201598619       1.61159954585912       2.02270953441275
H        -2.87490087875260      -2.44753182069739      -1.42938186358479
H        -2.24253141451093      -0.86309935718647      -0.96360021749160
H        -2.20488026927161       3.64986709667547       1.79581074262548
H        -3.06501083489623       2.86310532334217       0.45157179746184
H        -3.16088282500315       2.18044391707867       2.09303793326057
H        -4.51231256162144      -1.24208202721130       0.05481833761240
H        -3.27479934541725      -1.11477166960848       1.32872704020479
H        -3.91212959929245      -2.70884325052488       0.86497956874195
S         4.46368855084709      -0.99787626422137       1.83022727371805
O         3.91637216175532      -2.21672065075230       1.18587313276051
O         4.92052640440761      -1.13124439183911       3.20842531626074
O         3.66918711350372       0.22009436988172       1.51345138648003
C         6.04609513519794      -0.71046902249271       0.85185712162632
F         5.77518092326038      -0.52656234852422      -0.48671200450073
F         6.88968427391632      -1.76788761678186       0.94693412797156
F         6.70466429179164       0.39663914837380       1.28040554722868
