38
C12H23ClN2 optimized with ADF in AMS.
N         0.18802471683742       2.31882436669105      -0.10914905551622
N        -1.83198104491256       1.52341675334537       0.03598809524413
C         1.59937073358723       2.46064735528703      -0.49582625964180
C         2.46373541017970       1.37002578823981       0.13367936222731
C        -3.00279140395117       0.65692673920286      -0.17040551830505
C         2.29452750317200       0.00721659052228      -0.52823413463839
C        -2.82017052321097      -0.70369514793835       0.49684107005635
C        -0.70579354094304       1.50583003102233      -0.69313799890122
C        -0.35703860338357       2.80419614328218       1.05489144657419
C        -1.62212696647945       2.30385149833927       1.14704858823595
C         3.05488470606138      -1.09104887794883       0.21181534675821
C        -1.88577652915726      -1.63774286105490      -0.26723025788555
C         2.85123490580794      -2.46136521268472      -0.42649285459480
C        -1.63967735166674      -2.93393053489555       0.50034123183023
H         1.90473153040669       3.46682714648794      -0.17061380335102
H         1.64210923081159       2.43736213809703      -1.59697169616191
H         3.51615112076095       1.70170407807272       0.07795260560725
H         2.17684900765883       1.26492718803557       1.19751132648425
H        -3.86216464167750       1.20464354728025       0.24465504525552
H        -3.15714371382358       0.56827502994190      -1.25822102397554
H         2.60824388336007       0.05229622582157      -1.59071900078401
H         1.22679245463876      -0.26949769754345      -0.48318212632710
H        -3.81976138020327      -1.16184155355011       0.60248260697762
H        -2.38885537282960      -0.54631860640963       1.50420141000551
H        -0.55740180582802       0.95952979067687      -1.61422167862862
H         0.21128744130780       3.41819351672105       1.73978416846489
H        -2.36624824893982       2.40148110720509       1.92544787310283
H         2.66913578176394      -1.10567322431565       1.24685826847429
H         4.13217482988115      -0.84304441992493       0.25203828245865
H        -2.29567218390355      -1.84238856648059      -1.27546063710083
H        -0.90962580997017      -1.13538924678243      -0.37677499641971
H         3.20410081989855      -2.47860289221091      -1.47171239036972
H         1.78090008969733      -2.72379882111690      -0.42064311773196
H         3.38995724705504      -3.24604536660507       0.12639561719225
H        -1.12447314032743      -2.68962943384677       1.44338071152149
H        -1.00231295975384      -3.62272577071796      -0.07489147467786
H        -2.58567375250841      -3.45330688350200       0.72785810357407
Cl        0.12536269218357      -0.16840651224341       2.16908581156632
