34
C10H18F3NO2 optimized with DFTB in AMS.
N         0.69894182759179      -0.08974855558645      -0.50171774710288
C        -0.63024959386733       0.58628189684796      -0.63551495790192
C         0.59688442428399      -0.83706948900499       0.79510974849023
C        -1.01346408988586       1.00490290044127       0.78060116221824
C        -0.25802354304552       0.03919179900305       1.70652458650385
C         0.91064822540990      -1.00763093480217      -1.67150456953337
C         1.77590109946187       0.93408528259336      -0.42825364263390
C         2.23809736998870      -1.77699116904654      -1.65423816964784
C         3.28438080166628      -1.18306307067271      -2.59495476760860
H        -1.33995400449614      -0.14380511382975      -1.03242002798151
H        -0.54393373306674       1.42031075374752      -1.33273984435137
H         1.60211948902662      -1.00695281008347       1.18860350358331
H         0.11022152984020      -1.79272049908276       0.58870876906721
H        -2.09411776931153       0.93313137744213       0.91375024631878
H        -0.71548278951346       2.03768609766902       0.97237870254078
H         0.37006364392306       0.59239059498188       2.40551168508768
H        -0.94573045459184      -0.58092432618365       2.28388241725176
H         0.82905116416324      -0.38841101328850      -2.57019151559916
H         0.07152259821802      -1.70812686649044      -1.66220536043555
H         1.81127964853182       1.48002962366962      -1.36879026708626
H         1.56449560770915       1.61423859199794       0.39306789375494
H         2.72215557569630       0.43239026255200      -0.23281143548761
H         2.64412869222489      -1.82191466509456      -0.64316250634713
H         2.02585951678090      -2.80328460670047      -1.96737711320328
H         4.21122525760348      -1.74826700000447      -2.50119284368114
H         2.94711012593273      -1.23244230577673      -3.63149879538174
H         3.49386104881726      -0.14334666111261      -2.34684026576222
C         4.34325133148027      -0.53516107361347       1.90893079150993
O         3.61026850247589      -1.00351803811202       1.02502408865817
O         5.29941298010986      -0.94757900290078       2.51664383941506
C         3.85421066217884       0.98695301819620       2.30059801772975
F         2.50496952207408       0.99812885348074       2.54493947008705
F         4.01725262157939       1.84149189339380       1.25779141238421
F         4.43361918920992       1.54745920647008       3.36069118564450
