39
C11H19F3N2O3S optimized with ADF in AMS.
N         2.12505193394134      -0.96742082178374       0.10972258261077
N         3.28462115936426       0.86555818068623       0.07183248709418
C        -0.20533891409828      -1.82712302619930       0.19630501740134
C        -0.88369781063644      -0.57464421396323      -0.35312052616124
C         1.21865883868024      -2.04124637523822      -0.30979875618132
C        -2.32361788350522      -0.41731981744886       0.13579933821840
C        -3.00738047960931       0.83000326005030      -0.42172088152108
C         2.40370746437802       0.12501523756818      -0.61257376603626
C         2.85859678243142      -0.93098581785801       1.27501415881113
C        -4.44002140457210       1.00696704834456       0.07676766912561
C         3.59568338330144       0.21625332823371       1.24667142091913
C         3.98389950363839       2.03087062206571      -0.45935510499899
H        -0.20555148290275      -1.79740340313138       1.30167868675994
H        -0.78655052840731      -2.72041231599195      -0.09273893848914
H        -0.87336100252938      -0.60716940877631      -1.45899158369161
H        -0.30948285930425       0.32259311418236      -0.05707005784386
H         1.28871370378086      -2.08215008285983      -1.40715905206278
H         1.64950789912116      -2.97814644899710       0.07347518227249
H        -2.90743240754412      -1.31330077725368      -0.14750508812057
H        -2.33206548167804      -0.37777031374771       1.24170664740528
H        -2.40973184504867       1.71962940122303      -0.15106361397977
H        -3.00377839140189       0.77827083213407      -1.52572160772513
H         2.06810688884629       0.33069592505868      -1.62277449006084
H         2.80862308677545      -1.72779115927003       2.00612524758041
H         4.33242226588121       0.60727160795060       1.93659863650014
H        -4.46973754187540       1.09747606742900       1.17468645444756
H        -4.90121501822180       1.91220779476582      -0.34734533541200
H        -5.06702420297180       0.14604332929949      -0.20563102552319
H         4.94912850764227       1.69094962929795      -0.85956416892132
H         3.39285070075369       2.45298484761095      -1.27754368913112
H         4.10372472450759       2.76663688342931       0.34506021805149
S         4.35115943553795      -0.85509307970245      -2.73765492174256
O         3.30570186497549      -1.90060105556752      -2.69333680623085
O         5.23576072538834      -0.80167591635538      -1.55692722557043
O         3.86486824139406       0.46690897164763      -3.19790026647247
C         5.47612777335286      -1.42892686418553      -4.12176262413176
F         4.80062070416680      -1.51047925392351      -5.29828430380306
F         5.98983651815253      -2.65693235222131      -3.84792539658338
F         6.51499820629510      -0.56785793390255      -4.29158175910312
