47
C15H28N2O2 optimized with DFTB in AMS.
N         1.37829773450068       1.73361618204424      -0.56152806858054
N        -0.72809127297046       1.83064040027934      -0.88717334858495
C         2.77531219274934       1.34518494293744      -0.69228538851118
C        -2.05514720634211       1.59464060976413      -1.44493864609320
C         3.07916370795418       0.16380060486686       0.23660373087790
C        -2.38831731904942       0.10115755579054      -1.41990271518204
C         2.34765347858736      -1.09910381993573      -0.22274421139483
C        -2.29588677546389      -0.50003807535317      -0.01483788511654
C         0.41270387444390       1.36624348335011      -1.41081161074787
C         0.85313212254876       2.41362847704002       0.50816520389787
C        -0.48587991726898       2.47472553837285       0.29981490055457
C         2.52645893049630      -2.26547573213580       0.75121321200455
C        -2.39874566464015      -2.02702472467907      -0.07785037980401
C         1.82847290293759      -3.51392349033838       0.21344056923634
C        -2.25781832882360      -2.65073024235911       1.30904440572958
H         3.39931857210986       2.20692329881626      -0.43760094193767
H         2.94657623077510       1.06913604175893      -1.73639388355033
H        -2.06509793697051       1.96378705583792      -2.47493609653568
H        -2.77273823511228       2.17147958102500      -0.85433682151866
H         2.78328197405430       0.42504824325411       1.25794300879992
H         4.16039643490604      -0.00416317788509       0.23021972136416
H        -3.39830306515696      -0.02727811711602      -1.81976719829149
H        -1.69057524112362      -0.42544059996264      -2.07496527163392
H         2.71971744697513      -1.38806834721852      -1.21008960571993
H         1.28004739054765      -0.88448834760531      -0.32467356296705
H        -3.08841144500560      -0.09088827061600       0.62276474649282
H        -1.33343856980667      -0.22884950822725       0.43197785688584
H         0.62867107624082       0.72065242418134      -2.43606245307723
H         1.46288200874819       2.79643885807524       1.30788600685450
H        -1.27190671745298       2.91972853743382       0.88482066499140
H         2.10157863728571      -1.99633276913714       1.72498093579304
H         3.59284291843549      -2.47217319063653       0.89658814621430
H        -3.36248199959865      -2.31316535116496      -0.51266327022634
H        -1.60664859657214      -2.40592988672487      -0.73093177540664
H         2.29744858130725      -3.84018974241503      -0.71575637412739
H         0.77909566251166      -3.30035523763883       0.00776263270265
H         1.88792204784936      -4.32475746512688       0.94005221140844
H        -3.04835268649542      -2.29784731366567       1.97403084570263
H        -1.29367418689828      -2.38938542750566       1.74834887227999
H        -2.32265769365709      -3.73680310938305       1.23837073511075
C         1.07309821110885      -2.25193889668643      -4.33531558067679
C         0.68954237415033      -1.22499050992162      -3.26367149398187
O         0.11879339469548      -1.60459594457501      -2.23785452884437
O         1.00481316610041      -0.02091872030848      -3.52649232398253
H         0.79489317705955      -3.25301624189256      -4.01343616352508
H         0.56000733525374      -2.00580687770844      -5.26385029655514
H         2.14675119457579      -2.20276125630486      -4.51079084012798
