37
C9H20F6NP optimized with ForceField in AMS.
C         2.70335704158901       0.32628236959369       1.55142118399430
C         1.65254602825739       1.26971277465982       0.98178034777370
H         1.40100673667953      -0.84902063382202      -0.89736332436113
H         0.40077810810545      -1.70166466743049       0.32548915224060
H         3.16825240073423      -1.47729961119298       0.42132063678682
H         2.11728946389560      -1.73174283697297       1.87376363982569
H         2.66769670818511       0.33581862354003       2.66315381204289
H         3.72279174329842       0.62066809839041       1.21959508497533
H         1.37350169497114       2.04963383953236       1.72768168458243
H         2.11551834079860       1.79932723080670       0.11593979980613
H        -1.21250343911052      -0.48175002361935       1.49051771814847
C        -0.43608080883100       0.28486469655512       1.70251734979172
H         0.10719484291467      -0.05490086787418       2.61274758387038
H        -0.94698489690159       1.24267223517810       1.94660667813427
C        -0.18129111661105       1.14521018571514      -0.60128360423739
H        -0.29630827625085       2.22691059705683      -0.35823048943777
H         0.46681615689820       1.11578978756249      -1.50668105301442
H        -2.30494241931861       0.74605597267641      -0.14452730716116
H        -2.99248065323957      -2.09130765886867      -2.62655618852211
C        -1.63851337758018      -0.76915236236746      -1.56733022258535
H        -0.82543676527356      -0.90751115568302      -2.31238069342387
H        -1.51566301149330      -1.50694290704598      -0.75147025872988
C        -2.97952227366667      -1.04944320358349      -2.24180798914805
H        -3.13741309933196      -0.35552240845664      -3.09475085004852
N         0.48845536228194       0.45648158181930       0.55066142911333
C         1.09047748218435      -0.84456821479010       0.17222127962956
C         2.33880962284898      -1.04745362698147       1.02492614573458
H        -3.81050361307824      -0.92899850240155      -1.51354725859283
C        -1.59663377038792       0.65275927917021      -0.99398256977198
H        -1.96691830627626       1.35164728206800      -1.77721521413703
P         6.60743310419810       2.40088650512497       2.64102803386512
F         8.21040625434474       2.15780368721689       3.21133500206477
F         5.96287357201893       1.60294221421540       4.02004043656354
F         6.62267736447056       3.90703196751749       3.46874906014979
F         5.02589155194711       2.79472890252282       2.09659828658563
F         7.24631941019851       3.08425249939678       1.19925850660639
F         6.58341561983071       0.87251969437141       1.85517173768606
