35
C9H20BF4N optimized with DFTB in AMS.
C         2.88723722105474       0.50948256144786       2.28321563949033
C         1.81794760874668       1.42237879469160       1.68414644974097
H         2.02801394277379      -0.81460512096319      -0.03896700032138
H         0.69120297153116      -1.58979175934721       0.86072448961993
H         3.19433278505512      -1.60239861618284       1.86932005825125
H         1.83861334523144      -1.27145272886765       2.97333733085746
H         3.06240387101845       0.73958491666469       3.33521294393913
H         3.81907839554110       0.64118160209722       1.72920866454316
H         1.30822051286964       2.03542163697648       2.42910113749944
H         2.25155354715227       2.07040609145108       0.92264911479016
H        -1.09115769934122      -0.30880012946518       1.47721336796814
C        -0.40067662702264       0.42339342160641       1.88997052904402
H        -0.08305244289728       0.10300792697875       2.88011639089206
H        -0.88613362030149       1.39568124934055       1.95373616592950
C         0.43525429069589       1.14274020806891      -0.31439592392655
H         0.15508111684793       2.17737361722696      -0.09722913847481
H         1.35173660932287       1.14137360622574      -0.90936358476797
H        -1.60742810282763       0.41252929083710      -0.49162304343984
H        -1.15677338189921      -2.20712647451861      -3.22681886180756
C        -0.36998467935732      -0.87259275346063      -1.72784036117885
H         0.62895136311999      -0.83692684376893      -2.17019164490334
H        -0.37627309802721      -1.65315053643350      -0.96156974556164
C        -1.39350839417003      -1.23111608547837      -2.80395445625464
H        -1.37931344638857      -0.49274539487187      -3.60622970661209
N         0.79295209944353       0.53187128835490       1.01456493218129
C         1.45206315702346      -0.81061448688998       0.88717938442461
C         2.37576252183943      -0.91651293224306       2.08897814291100
H        -2.39952462653858      -1.26857133736896      -2.38275618748060
C        -0.70031568890641       0.48684647608266      -1.09932813266513
H        -0.91764388147771       1.19253730891282      -1.90871501433196
B         3.84213929298755       0.34988245364151      -1.23150708635352
F         4.17262303628071      -0.51785102320368      -0.17031978884761
F         3.44758229144284       1.59108353627736      -0.65599635572331
F         2.68077566076469      -0.17785595574956      -1.86656990215269
F         4.86928880641204       0.50907298693062      -2.11081771147895
