36
C8H18F2N2O4S2 optimized with ADF in AMS.
N         1.28642915378087       0.24603454808115       0.04911884921557
C         0.64146028008780       1.06286515974948      -1.06380300952222
C         1.29541747514987      -1.22532033004647      -0.34458889410860
C        -0.73264293297548       0.55174510249794      -1.46422925739970
C        -0.08052699200454      -1.74616193524580      -0.71581039996395
C         2.72422310793879       0.74323655782555       0.18137493358864
C        -0.68216861571571      -0.92542076964948      -1.85460771115768
C         0.55195129940735       0.44875233750641       1.32951790987642
C         3.51811401472783       0.13550733834865       1.31741576260677
H         1.33359176836396       0.98731245042025      -1.91541623112060
H         0.61140039014173       2.10287946961589      -0.70445914349310
H         1.73598730139780      -1.77576688818540       0.49623640562979
H         1.97319964175122      -1.29555731984339      -1.20274145045218
H        -1.06024386639569       1.16737416311951      -2.31877530067262
H        -1.47184660510403       0.71758581629614      -0.66071750800568
H        -0.75678222993370      -1.76440606974973       0.15760353648668
H         0.06085278029080      -2.79470720764061      -1.02590317394175
H         3.20195571040986       0.52126297064882      -0.78178160642610
H         2.64240664936140       1.83651273241196       0.29158124427880
H        -1.69101336516592      -1.28973751373956      -2.10462294189071
H        -0.05063201180506      -1.04168790875750      -2.75221783365417
H        -0.50413364563200       0.19931192837340       1.19080021205733
H         0.98454185158926      -0.20262515755331       2.09692988894290
H         0.65084040362575       1.50119849122701       1.62597499170839
H         4.54055431029164       0.53549056943286       1.23896908547148
H         3.13135130850357       0.40399821324680       2.31042195773812
H         3.61081434453792      -0.95364541651450       1.22175608925193
N         4.61446850878742      -1.47790570939008      -3.66482023032442
S         4.48831429360080      -2.40183712279745      -2.36032391200245
S         3.77060645594171      -0.13092478255609      -3.79224838379367
F         2.98049238746529      -3.10727020149089      -2.53581036268456
F         4.52215877752578       0.91433390279579      -2.72296264668467
O         5.41305788938860      -3.50304857869438      -2.47748212874162
O         4.34708303727593      -1.68527816099504      -1.09545158771031
O         2.41048746449540      -0.18963778758358      -3.24613323236499
O         3.99668703879379       0.45811937973566      -5.08973593373709
