47
C13H26F3NO3S optimized with DFTB in AMS.
N        -1.70669487390061      -0.09998612404404      -0.20731832044292
C        -1.73877589444986      -0.85195956760890      -1.51312955697834
C        -2.79587874471386      -0.71979241196844       0.63936694557773
C        -0.38271801886786      -0.27727462302764       0.47990771509717
C        -3.18692723677231      -1.26490267956339      -1.70586021910724
C        -3.67589409236456      -1.55723307431374      -0.28901399136235
C        -2.00904356287446       1.34221332109147      -0.48624370450090
C         0.81405346665449       0.18806670445337      -0.34351051789358
C        -1.90466172171158       2.26177375282256       0.72308105726244
C         2.09701732044455      -0.33703872188008       0.31172424170659
C         3.33625183240990       0.10931980641917      -0.46826031909167
C         4.61583683814911      -0.43411092990623       0.17514485160794
C         5.85781768241988       0.00206215516359      -0.60007774363672
H        -1.09853462411570      -1.72763434841579      -1.41150421679179
H        -1.36094087690137      -0.21447525815648      -2.31226402745823
H        -3.35297670980955       0.07461765535227       1.13599969624425
H        -2.32241076910303      -1.34943446027036       1.39345330270580
H        -0.28552244540478      -1.34346084370253       0.68607547325775
H        -0.43271052392503       0.25393617542782       1.43253139599341
H        -3.24006532206393      -2.15526889203724      -2.33335617373328
H        -3.76857103815893      -0.46398475129652      -2.17103214570230
H        -4.73027409112571      -1.30566585668187      -0.16471859063663
H        -3.53591430058344      -2.61624282356220      -0.06294202451645
H        -1.31164130773392       1.67780502182806      -1.25745387092927
H        -3.02137047407810       1.37583409845919      -0.89659992473871
H         0.75129853655344      -0.21240640630045      -1.35798184496702
H         0.84438132517931       1.28064746691828      -0.40782478401209
H        -2.30510691646245       3.23428669728681       0.43748590816658
H        -2.47933561176116       1.89123731710501       1.57000075316091
H        -0.86963212439097       2.39796745810322       1.03135224825642
H         2.05336172984720      -1.43022003259663       0.33827942014464
H         2.15824119657069       0.02606107797129       1.34328299342900
H         3.37669340214584       1.20428843896882      -0.49952462419937
H         3.26470367773791      -0.25186709190251      -1.49978030498371
H         4.68550970813430      -0.07434397828054       1.20741845242979
H         4.57019009982609      -1.52749828628972       0.20419817345865
H         5.93170732188738       1.09046383924094      -0.62487082508485
H         6.75423977668516      -0.39605554452607      -0.12419038861992
H         5.81663115285344      -0.36612887362167      -1.62613156836227
S        -0.78415865054722      -3.78892562401279      -0.04330790769454
O        -1.25611484919815      -3.27007641993956       1.23584060739828
O         0.40148814788945      -3.10310175180126      -0.54436864287893
O        -1.83467556903233      -3.95626247390053      -1.03373225838385
C        -0.20426557012167      -5.50087390512181       0.33648584860875
F        -1.19711620583155      -6.23088096787380       0.82854154845750
F         0.77557023577066      -5.46713523701426       1.23204982835169
F         0.24998242924529      -6.09323832859480      -0.75999751190837
