37
C11H23NO2 optimized with ADF in AMS.
N        -0.39616908805816      -0.01096189955662       0.46026516892057
C        -1.69401335207099       0.18276800678107      -0.31866698755389
C        -0.62891041093402      -1.04009854279040       1.55688622609226
C         0.60938194102946      -0.55557902264534      -0.54437755341496
C        -2.87191913954567       0.54219351497746       0.57021324891563
C        -1.78095326432147      -0.65966291487869       2.47304396851701
C        -3.07053294407365      -0.50217364022426       1.66842207907053
C         0.08125997024755       1.28166013075862       1.02665960949704
C         1.95599894739167      -0.96645206535390       0.02182849880732
C         2.84202673896583      -1.44890921838020      -1.12917716918966
H        -1.84364665463257      -0.78414274589018      -0.84131684674458
H        -1.48394969337462       0.96127485167896      -1.06927805465344
H         0.31721996569747      -1.13287692104719       2.10673167484325
H        -0.89683243245710      -1.98618897163800       1.02263819009734
H         0.73138630880383       0.24411509934844      -1.29564505652429
H         0.08385647905844      -1.41214588578411      -1.02735894461083
H        -3.75877252491542       0.59204449763526      -0.08461923160998
H        -2.75375636458581       1.55067431139184       1.00873488071856
H        -1.56328821378578       0.25362568024985       3.05929456185677
H        -1.88251091865698      -1.48167284185874       3.20178540495346
H        -3.90841415635318      -0.21632615906411       2.32481304448500
H        -3.30261447577314      -1.47717933880520       1.20289524624846
H         0.99727748842276       1.10128337625253       1.60177926160328
H         0.28473952901342       1.97222824362592       0.19713125604773
H        -0.68603403652235       1.70369452744661       1.68286791094498
H         2.46008996168821      -0.13633343438413       0.54778367863749
H         1.82920931552177      -1.79180924369128       0.73991820408370
H         2.36396554831718      -2.29034258515923      -1.65316166125365
H         3.01287202399173      -0.64482710025551      -1.86183208312575
H         3.82066100232340      -1.78224506137426      -0.75422616139746
C        -2.37158837873621      -4.62861335855756      -1.76786255378865
C        -1.81817153670150      -3.38112126797385      -1.07028584220965
O        -1.94230343343921      -3.32549058594193       0.19081853615789
O        -1.26494686476261      -2.50857291043783      -1.81621603680169
H        -1.60602197728322      -5.42108271987572      -1.73653057775120
H        -3.25999271509889      -5.00545799563257      -1.24240459444947
H        -2.60412723509015      -4.42086745824574      -2.82128169151913
