37
C11H20F3NO2 optimized with ADF in AMS.
N         0.64410916386345       0.34688148054284      -0.35225763025710
C        -0.73109359185462       0.98378218186685      -0.32854980377442
C         0.50095351326735      -1.16920459768729      -0.30283930768554
C         1.28945675402276       0.74169321954570      -1.67497644689106
C        -1.58695613326177       0.53658444670232       0.84613767019991
C        -0.33165402991305      -1.63143974410059       0.87889097429772
C        -1.71542202936965      -0.98555809077673       0.89137636805832
C         1.47849042290282       0.83508811820884       0.79393785012451
C         2.72816454860743       0.28353435071335      -1.90492856627818
C         3.80375439861826       1.29402047492273      -1.50633230555954
H        -1.21283887395523       0.69726184939395      -1.27747650176771
H        -0.57597733427328       2.07330796302579      -0.33149231582220
H         1.52348301503088      -1.60035927957586      -0.26634214455575
H         0.01121580996609      -1.44487965926010      -1.25182577198215
H         1.21151687257359       1.84115309947259      -1.72277291065665
H         0.61819894595095       0.32113177631560      -2.43945895620792
H        -2.57420865442509       1.01434246653283       0.73034930540422
H        -1.16924369855339       0.91677004762398       1.79325757151652
H         0.20630652841649      -1.43351692502724       1.82162603223589
H        -0.40605306076955      -2.72829766632421       0.80201977034651
H        -2.28438843885146      -1.29268328011237       1.78263393263622
H        -2.28798786552033      -1.32837071940170       0.00948257651796
H         2.44080155508300       0.27570509949292       0.82120576369249
H         1.64377092802866       1.91216565116853       0.65618401972987
H         0.93513781950845       0.66306940602381       1.72854403880926
H         2.91863393546617      -0.68413039540445      -1.40642632052670
H         2.80430445282539       0.08514585647006      -2.98853444098436
H         3.60012570528821       2.28937553412404      -1.93596437784182
H         3.90712342330890       1.37339895743962      -0.41661042423844
H         4.78072653326476       0.95776772183056      -1.88441683468282
C         4.04674531789964      -1.81664061426362       0.74427668146456
O         4.07124496981806      -0.62321675546451       1.13334879020404
O         3.26348940254326      -2.40249438021531      -0.04781232716072
C         5.20558074207288      -2.70257647482864       1.30850217203621
F         4.90020676437832      -4.03241837328766       1.33272388386528
F         5.55849881224339      -2.35385400977625       2.58129988882466
F         6.32955796469825      -2.56267154501038       0.52799465060893
