51
C13H24F6N2O4S2 optimized with ADF in AMS.
N         0.71920857035971      -0.46485710782484      -0.51678262587630
C         0.97344378608680      -1.77705328141643      -1.24744695643787
C        -0.78674564276368      -0.33903017554174      -0.58133922200755
C         1.18040187310026      -0.52135539778590       0.92130997555354
C        -0.05429839325054      -1.80856214390788      -2.38435809463216
C        -1.16417469461862      -0.80123387055047      -1.98429737638099
C         1.39933546385487       0.65436085512447      -1.29068681500453
C         2.67265836108058      -0.72009537787432       1.08987335349708
C         1.28934958693273       2.03866941615398      -0.68126747182833
C         3.03490080968902      -0.88230244740949       2.56869395949996
C         1.85100831836766       3.05954385969736      -1.67480301696460
C         4.53011372073702      -1.12585560817313       2.75970558672449
H         2.01859473165713      -1.79866323684050      -1.58937665783886
H         0.79908635992215      -2.57215903164179      -0.50705647873711
H        -1.18069600304028      -1.02317248580497       0.18587370638981
H        -1.08081682450167       0.68718395526602      -0.32842548501085
H         0.62149307926019      -1.35601077460786       1.37541944637962
H         0.83860682162759       0.41085520335571       1.39773768541457
H         0.42466388734778      -1.52226498915646      -3.32995911914688
H        -0.45029174377631      -2.82719484349917      -2.50098012732155
H        -2.16653910845100      -1.25359964963583      -1.97631703008273
H        -1.19770596009872       0.04736486420642      -2.68344787461384
H         2.44920951442098       0.34991754416908      -1.38609695533286
H         0.97703570888593       0.62597303365637      -2.30484633751030
H         3.01724495860446      -1.60350844893624       0.53003022506535
H         3.22672368557428       0.13579571819829       0.67909171929448
H         0.24319901738676       2.29813737871968      -0.44166104676986
H         1.86403441255571       2.08817323503906       0.25850854070318
H         2.72694934606680       0.02160763572650       3.12618207891981
H         2.46261806206392      -1.72559290979031       2.99758329865030
H         2.87647055773212       2.79692228995862      -1.97367736599898
H         1.23889682035940       3.09481585305700      -2.58863545463098
H         1.86320599673953       4.06444645791709      -1.22851197854392
H         4.77498745559634      -1.24617970387685       3.82570636651339
H         4.85201886727400      -2.02785647690810       2.21950583412232
H         5.12037229496186      -0.28746676267561       2.35991755047861
N         4.08811638317996      -0.97511618623481      -2.42157075858108
S         3.81041875300869      -0.25654238855613      -3.84380224152678
S         5.53084708864428      -0.99754271781245      -1.68785721667896
C         4.76560295080941      -1.19076954369685      -5.19925145790408
C         5.87373424059273       0.77583443860081      -1.07739066954222
O         2.40781732340278      -0.54472886083725      -4.15839967814428
O         4.29157537103597       1.11879981214074      -3.93471529457656
O         6.66235338978179      -1.28720956095460      -2.55418553855554
O         5.33034207682067      -1.73488460326686      -0.44490215142392
F         4.13540039831954      -0.96171592782540      -6.37913050906846
F         4.76438038010352      -2.52244832001726      -4.96184914053044
F         6.03258218924690      -0.75511886071310      -5.30026723080181
F         6.71275555969207       0.71108224765991      -0.01395498787432
F         4.72334573030246       1.39183680464599      -0.65651894552771
F         6.43822325911449       1.54267913587947      -2.02356490819928
