49
C13H16F18NP optimized with ForceField in AMS.
N         0.06194475586826       0.22191623321648       0.05538756692062
C        -0.52062784590857      -1.11160740365782      -0.21215527144102
C        -1.01013384107590       0.95354202787021       0.77972735354227
C        -2.01441907187014      -0.91884121515497      -0.39807994466543
C        -2.35004487540517       0.30206332587879       0.43516126903236
C         1.28486253342024       0.13455228542804       0.90901802211649
C         0.35832082489991       0.92167421589427      -1.22286112079286
C         2.44831569446365      -0.64332312768738       0.27350941546783
H        -0.37050631953621      -1.78836571121995       0.65919169489084
H        -0.07375733565121      -1.60598683313620      -1.10433627409514
H        -1.02842804272423       2.03933802937120       0.52793786406314
H        -0.87771402827973       0.89312011817217       1.88504365693299
H        -2.58625546725687      -1.81306656891164      -0.06764606426784
H        -2.23639973374971      -0.71872908385250      -1.46942743772693
H        -2.99765614021554       1.00135973311380      -0.13721625694780
H        -2.87983601177011      -0.00385386991197       1.36469450275908
H         1.64726835661962       1.15734774126287       1.16019897294437
H         1.04479956517356      -0.36229836221578       1.87712295994546
H         1.01612088704031       0.31251656459333      -1.87941659444931
H        -0.57290212179600       1.12591323189125      -1.79691791278565
H         0.86113544177613       1.89623582875625      -1.03443755976778
H         3.25817401915845      -0.76158873700952       1.02396531109478
H         2.13059763600948      -1.65610849667183      -0.04703976921870
H         2.87193507267128      -0.09187251463832      -0.59054363629555
P        -1.30230606123431      -5.76208663267757       0.17005042253734
F        -2.93784868546886      -5.24857413113789       0.35840014780697
F        -1.09688553984741      -7.23219293596016       1.04587215195653
F        -1.58373292115124      -4.40649706056083      -0.85123264511975
C        -2.16266032534627      -7.09112685400588      -0.93861911740390
C        -1.37846055145378      -5.02334154697721       1.95766996540782
C         0.51331638565168      -5.41327722694904      -0.35427141273892
C        -2.77389206915411      -6.57744035590904      -2.26080573416436
C        -0.11310008355280      -5.15913815036952       2.84221134472724
C         0.87670182601571      -5.57889949300016      -1.84126129870826
F        -3.20064324121031      -7.67495217557719      -0.22135224722315
F        -1.27264542238125      -8.10726104582168      -1.24796061400886
F        -2.41012618403873      -5.63379199450464       2.66415794339715
F        -1.67130862604338      -3.67165538410700       1.86936964544383
F         1.34040868305395      -6.25619394229533       0.36605424827089
F         0.83378203490466      -4.10932116932289      -0.02197738245066
F        -3.41304889305566      -7.62822255823696      -2.89490884124562
F        -1.80502110155294      -6.09760439374780      -3.11373311357849
F        -3.70879839553924      -5.58386319391914      -2.03565749254262
F        -0.43640528519613      -4.78403451269488       4.13470890555708
F         0.35488741274945      -6.45851694076792       2.88774468326436
F         0.90003397764404      -4.32386953887558       2.41920635053288
F         0.59224489235332      -6.84747246242903      -2.29804945051903
F         2.23831238346674      -5.37989094697282      -1.98777675581054
F         0.23292060882539      -4.63617552866059      -2.62142281014413
