44
C12H24F3NO3S optimized with ADF in AMS.
N        -0.11590079940432       0.19661562627958       0.22118932064599
C        -1.30879022551040       0.69693777306138      -0.56118428640575
C        -0.49473540427124      -1.10565424993538       0.92542099198252
C         0.99396496747592      -0.08675525038063      -0.77891934365386
C         0.34535235096796       1.20437896221041       1.25995638931261
C        -2.54417152685734       0.88876148078241       0.30132926905026
C        -1.73611580584125      -0.96790049131009       1.78946421274252
C        -2.92508781114779      -0.41283380471326       1.00774067828060
C         2.34754354129816      -0.40290764656120      -0.17126934516139
C         0.73083543179322       2.55752801129290       0.70499325864955
C         3.28061755083252      -1.01162828957484      -1.21986830822172
C         4.64989764592533      -1.32423975369992      -0.62149620043434
H        -1.49537758536680      -0.06506719889523      -1.33580608634455
H        -1.00115316575720       1.62406134376844      -1.06401741315304
H         0.37434131211052      -1.41346195448759       1.53091195099518
H        -0.66255602381147      -1.83111078854401       0.11194081268034
H         1.04741839331210       0.79231866203039      -1.44016521127814
H         0.62897907017143      -0.93399722662943      -1.38150500291437
H        -0.46015651675063       1.29301651131089       1.99559673913526
H         1.17300757377887       0.72478427232994       1.79238436779814
H        -3.35675142153714       1.23460781085612      -0.35967943345749
H        -2.37692396614557       1.69488404998452       1.03507104607859
H        -1.50251411764742      -0.36316444669081       2.68112118593943
H        -1.95723828520500      -1.97691659747821       2.17596594643536
H        -3.78631461139714      -0.24787428147546       1.67463853671860
H        -3.24620520862195      -1.15000988218041       0.24739029075341
H         2.25154353572392      -1.09505781414737       0.68032547792136
H         2.80966615175586       0.51318292489826       0.23244381145684
H         1.11597617144674       3.15218877856275       1.54751458032871
H         1.53525104970676       2.50128639176608      -0.04226878271108
H        -0.11972065714163       3.10890962915240       0.27819006671043
H         3.38957921541075      -0.32239610895687      -2.07820397334690
H         2.82658309474367      -1.93925674548599      -1.61431625605203
H         4.54935219871361      -2.01895127488292       0.22664704468143
H         5.12931034329094      -0.40820435935873      -0.24287732125472
H         5.31937274340042      -1.77883721505222      -1.36674543715202
S         1.79419557664160      -1.00847804184511       4.04860914481872
O         0.64568884226847      -0.07710695457802       4.00919576250929
O         2.02030287439680      -1.71333428589174       2.75875017251519
O         1.94321987312603      -1.82053423672509       5.25273741604066
C         3.26335864133068       0.16204697674410       4.12457091386374
F         3.31965266066958       0.96470261633269       3.00316083298290
F         4.43960474022076      -0.50995202698558       4.19268150116983
F         3.18582962110165       0.98666295030284       5.19938810674394
