41
C13H21F3N2O2 optimized with ForceField in AMS.
N        -1.27158572305812       1.29964415632301      -0.22918651129666
N        -2.67535820621532      -0.38736163348654       0.13103555903387
C         1.11460277654284       1.93634818448112      -0.21888774081201
C         1.59592017239236       0.48666823131670      -0.37748068944608
C        -0.26192974937929       2.14704851023636      -0.86197265214107
C         3.01379527264665       0.30089038137445       0.17243469739767
C         3.45442389607205      -1.16262394542824       0.04782165775387
C        -1.81171431608382       0.17432165285107      -0.73651789505974
C        -1.80540598845895       1.45044612814485       0.99977761570978
C        -2.67869873065049       0.40525279059157       1.22210757318786
C        -3.39211630050874      -1.64852270872865      -0.04091073241290
C         4.84983093246910      -1.37307206935657       0.62638317084168
C        -4.85704756235127      -1.38589962412782      -0.36512568372214
H         1.83956640260412       2.62258494794211      -0.70844830087778
H         1.06377947991644       2.20214881318090       0.85911234710068
H         1.58142351824572       0.20900972125222      -1.45464871443149
H         0.90659670828782      -0.19141925578467       0.17143255361653
H        -0.56120913733355       3.21285832846844      -0.76167045384905
H        -0.19976048984878       1.91938558393664      -1.94934991070338
H         3.03922599580303       0.60391943632895       1.24185067557348
H         3.71752308247866       0.94852915728160      -0.39538417722770
H         3.45920173693576      -1.46162500839809      -1.02318436536429
H         2.73957103594845      -1.81803887036806       0.59202549176782
H        -1.55877209049034      -0.24232692500986      -1.70322550267270
H        -1.56515190228636       2.24852234603284       1.68995290137435
H        -3.25209388130858       0.22463008141222       2.12183605967238
H        -2.93824832801279      -2.23417204886398      -0.87041061067831
H        -3.31330222215788      -2.25353644102435       0.88836256117301
H         4.85975569998014      -1.12139657120885       1.70833033930653
H         5.58889082605556      -0.73817021000138       0.09316558442683
H         5.14384387820284      -2.43727651227043       0.50687887957535
H        -5.34065029248168      -0.82625786384393       0.46303010827824
H        -5.38671020404085      -2.35194473922464      -0.50478763500461
H        -4.93703722224400      -0.79434901102392      -1.30197498891792
C         0.55721084787168      -0.09131018221125       5.25962323943459
O         0.92443290744313      -1.07079781921422       5.88889768660135
O        -0.63101588868146       0.18301724851262       5.21069585793554
C         1.55320330901152       0.77427599639954       4.54871281360653
F         1.23707631514529       0.82814808859189       3.20466812262799
F         2.83208265971836       0.26434659692530       4.69200729433224
F         1.51481234172069       2.05130082329106       5.07711936668968
