40
C12H25NO2 optimized with ForceField in AMS.
N        -0.88391413208152      -0.16325382511540       0.04808389577148
C        -2.01851621741795      -0.27628884527747      -0.91902071499315
C        -1.21510494106353       1.02232915257934       0.89741418501412
C         0.39007490708068       0.07901062120576      -0.70483491122107
C        -2.84782749010656       0.98991233459601      -0.83053740880692
C        -2.63444662733127       1.45714872812041       0.58141405567917
C        -0.81406485071980      -1.39034573424257       0.90559758033698
C         1.65396596343477       0.18057939625698       0.18434281441511
C        -0.45841897500611      -2.68127853101597       0.14462329527892
C         2.86894476621793       0.61663517508108      -0.64404580029207
C         4.12771055649722       0.69682772146636       0.21577033002619
H        -2.69948291021284      -1.12313062981404      -0.67125500422502
H        -1.68626136116447      -0.43803185675185      -1.96979965194552
H        -1.11757773414046       0.82167031447031       1.98872046703511
H        -0.55674129101410       1.89452282838812       0.67910993441776
H         0.55839220245451      -0.72607080739427      -1.45463696392290
H         0.29625733854504       1.01991555870360      -1.29600568040082
H        -2.45808684056956       1.74845047592650      -1.54481094621177
H        -3.92317985810029       0.79728582609712      -1.03885804936247
H        -3.34842909018960       0.94342031260512       1.26260079941876
H        -2.76143958903424       2.55844133207001       0.66945706388113
H        -0.07581718846812      -1.25777800438427       1.72673416967233
H        -1.79294592331939      -1.55256709732247       1.41296627727608
H         1.49920182886411       0.90924163965793       1.00771139192857
H         1.87969641838939      -0.80856423973229       0.63495114787803
H        -0.57606576551059      -3.54975562917142       0.82649481570354
H         0.59661472367591      -2.66765799097926      -0.19624091824033
H        -1.12215872176669      -2.83943722345156      -0.72948581768136
H         3.04143971014515      -0.11293936354160      -1.46560985852759
H         2.67855108482383       1.61579910375267      -1.09360354783572
H         4.33925884706610      -0.28709081108192       0.68649425906542
H         4.00454015225748       1.46483238215083       1.00916792472478
H         4.99355882060029       0.97824206374079      -0.41964598336622
C         6.43641779636458       5.15970625262464      -2.02912910998231
C         6.99401430703650       3.93253026438086      -1.37879616946044
O         7.93546766065257       3.34694691005300      -1.88871980580793
O         6.51186933158525       3.51333118140355      -0.33863742312889
H         7.22690871355127       5.93615928042295      -2.10023543287532
H         6.07784764526691       4.91049523438519      -3.04972739175043
H         5.58642751250761       5.56510234993723      -1.43942128818523
