30
C8H20ClN optimized with ForceField in AMS.
N        -0.01562112394175      -0.00821085811406      -0.00085731499406
C        -0.88333465331379      -0.29878656044596       1.19394919669692
C        -0.84321442810227       0.24379067862884      -1.23195590086686
C         0.86581775480241      -1.20147664061819      -0.25198531542441
C         0.79831162957590       1.22397754844418       0.28756317030692
C        -1.92320912294917      -1.42336399527402       1.01380435689426
C        -1.92706151695895       1.33275981469884      -1.10194791090573
C         1.93827263445418      -1.02748387756156      -1.34611582402987
C         1.84231736378322       1.09245648437717       1.41418159404893
H        -0.25845945263318      -0.60025864892180       2.06198538234623
H        -1.42376525997720       0.61616857017558       1.52331560348409
H        -0.19458554693302       0.56389127725025      -2.07559497408648
H        -1.33610816131806      -0.69214551967516      -1.57664942720938
H         1.37979537849504      -1.51798229952000       0.68263644487704
H         0.25423390476089      -2.07532570397277      -0.56331856976922
H         1.32676979782160       1.57339613129894      -0.62701544513548
H         0.13451847047008       2.06427000745290       0.58545853963134
H        -2.50871477069008      -1.52185432214371       1.95222751630137
H        -2.64680834301321      -1.20285577895347       0.20504819577541
H        -1.43955364423155      -2.40293472642058       0.82894628150317
H        -2.48891282102405       1.39292877286662      -2.05785157961542
H        -2.66456363040549       1.10323803779528      -0.30856149570383
H        -1.48102062589815       2.33144200256535      -0.92352072555898
H         2.53052361303237      -1.96416245982783      -1.41746602085086
H         1.48301093050383      -0.85631131374130      -2.34168329622390
H         2.64996619199688      -0.21188140092089      -1.11241994928184
H         2.36888433672437       2.06345110023430       1.52567361612659
H         1.36774776071516       0.86672170829841       2.38933012145898
H         2.61324926597292       0.33077056554599       1.18579277883806
Cl        5.36795090788107       2.93912009567864       1.60081427666700
