28
C8H18ClN optimized with ADF in AMS.
N         0.07469125593596      -0.17280001955315       0.13728761791014
C         1.07425601128955      -1.08471772086512      -0.56218126492643
C         0.92944211352710       0.56620020050178       1.14113904247384
C         2.32843845026350      -0.23086147306396      -0.70543766354606
C         2.26172785169375       0.82287189429181       0.43236135469262
C        -0.99613027756877      -0.97142669664782       0.84370306205315
C        -0.51229041138713       0.79492350202062      -0.88489402922606
C        -1.87927835890264      -1.78320338339976      -0.07792737724915
C        -1.61281949819495       1.67956456435513      -0.34080877533383
H         0.62020925002152      -1.41793455528024      -1.53122730530596
H         1.23319627037388      -1.93250023805944       0.12235722051974
H         1.05436848135714      -0.10882445203497       2.00111188764092
H         0.40415407040922       1.47052821989171       1.47316790154131
H         2.34605621708833       0.25228735760099      -1.69396510673700
H         3.22602478335699      -0.86108621756579      -0.63561987377890
H         3.09009855731750       0.71760373430594       1.14776820306438
H         2.30851136889479       1.84563024168179       0.03052672491006
H        -0.44890924684894      -1.62511755204427       1.54235498057973
H        -1.57580439309246      -0.25135821568259       1.44204124441240
H         0.33677327399459       1.39968165111226      -1.23389385333781
H        -0.83586628344102       0.16047776279443      -1.74770826609741
H        -2.57064853258331      -2.37167891311374       0.54552443722517
H        -2.46514424495473      -1.15650093850275      -0.76324262099017
H        -1.30084547850938      -2.45893345491736      -0.72482369924143
H        -1.87780476459971       2.39658026893292      -1.13303560935270
H        -2.52510453008795       1.11468657331122      -0.10211044373718
H        -1.31696865165851       2.26737210308539       0.54309540256935
Cl       -0.73014953909432      -1.46970912845504      -3.25060037383272
