23
C7H12N2O2 optimized with DFTB in AMS.
N         1.56716894347229      -0.75444110819768      -0.65835033417072
N         0.09542132733527       0.71943188269368       0.24966010553218
C         1.32678094303433       0.02081445960555       0.53626747581846
C         0.85183572496178      -0.10072179971785      -1.69603044943943
C        -0.00708083123535       0.76472527242559      -1.16360372149053
C         2.96286333320966      -1.10178338854775      -0.92547355325921
C        -0.13554688053457       1.95766509570962       0.99136962635065
H         1.25936817882977      -0.59615225489213       1.43999108883796
H         0.99502395884118      -0.40490989160328      -2.71897171066851
H        -0.76673246305281       1.37139465339885      -1.62701395814026
H         3.38008454226837      -1.57357416943834      -0.03611309352337
H         2.98505704418176      -1.81176584409276      -1.75205739669603
H         3.55717390867566      -0.22025346513939      -1.18505297456915
H         0.55361029801053       2.74987732206974       0.68088648867590
H        -1.16105432471038       2.27812596914714       0.80867967667188
H        -0.00531909062645       1.75313212748027       2.05338195482579
C         3.99759501471657       2.18953131788283       1.99360313842385
C         2.84941705211256       1.20640671083364       1.97868468426771
O         2.36631574429410       0.71720020211860       2.96432064064829
O         2.43835434177311       0.96651310535819       0.73554862745970
H         3.59182638869198       3.19203315227610       1.86294708741774
H         4.51463486776270       2.13215999235590       2.94811103964488
H         4.68170019438798       1.98173038587344       1.17381002028223
