52
C14H18F18NP optimized with ForceField in AMS.
N        -0.30991709777515       0.27648743591909       0.02307788382754
C        -1.33734117531007       0.54461446794868      -1.00944820997091
C        -0.74644568392494      -1.00001482301614       0.63386939048456
C        -2.65625728837350      -0.01837342433409      -0.49599735236471
C        -2.26828329906842      -1.06153636725492       0.53871401496183
C         1.03527926491481       0.16487151525200      -0.61714079952188
C        -0.33041561057522       1.37050703962682       1.03040645345511
C         2.18324503008518      -0.14289234989655       0.37126667335530
C         3.47455377004270      -0.47285356193841      -0.37255877410144
H        -1.09800839518782       0.01735432023338      -1.96270483134328
H        -1.42878522778717       1.62905974459051      -1.24857321691101
H        -0.41536523610136      -1.10035151257283       1.69236348102128
H        -0.33299327553210      -1.87049172602341       0.07321098933292
H        -3.24961857324142      -0.46805726420108      -1.32191370691512
H        -3.25389275946981       0.78934266574533      -0.01897373988169
H        -2.72481237714067      -0.81457961055392       1.52228844090784
H        -2.60362177019824      -2.07506866324568       0.22704459003879
H         1.27749281075210       1.11273449086031      -1.15068132404459
H         1.02079863818207      -0.63699661687620      -1.39125244899620
H         0.02386205179222       2.32666632971058       0.58518001924046
H        -1.35621227117186       1.53882287755245       1.42682835625734
H         0.31219770400999       1.13232743897569       1.90448171108655
H         2.37741110814842       0.73974307516807       1.01654947299937
H         1.92466585491400      -1.00658344948624       1.01869632633019
H         4.28685387398879      -0.66800423193020       0.35927832371840
H         3.33726929274917      -1.37989441028279      -0.99858053253785
H         3.77506167571673       0.37751318484912      -1.02094378162730
P         6.24586183674668      -4.77966961580845       1.44717121952824
F         5.91103549971525      -5.63574284768999      -0.01108789495959
F         6.28656294778167      -3.12306417639437       0.97538282717180
F         6.05509745345675      -6.46633792065811       1.72877033491373
C         4.38033919411549      -4.31055834946102       1.27794675680554
C         7.94495086902299      -4.74323688980289       0.51470795085861
C         6.81107138646930      -4.74217806221521       3.27973965149955
C         3.36724185869642      -5.45946360121678       1.47748577500472
C         9.06933916781851      -3.84090736373842       1.09445763579663
C         5.79391049254119      -5.15311418131849       4.35816165779541
F         4.14856570217668      -3.81116169861396       0.00159585898981
F         4.07081242811625      -3.29554216586865       2.16794622857065
F         7.74858164344005      -4.32306628932758      -0.79739923194284
F         8.44241000573096      -6.03612720376043       0.46762441077495
F         7.23363211021263      -3.45794566528302       3.57369930506452
F         7.88555915352970      -5.60064348793948       3.42749533347867
F         2.08987777098046      -4.96717971155140       1.27513378805825
F         3.41943544760574      -5.97696022181686       2.75110803986017
F         3.57940071213543      -6.47958542171214       0.56846857637677
F        10.08018954082741      -3.73707580363334       0.15462319021362
F         8.62846525465756      -2.56233201546390       1.37720924824622
F         9.63091792528894      -4.38517487255619       2.23098824150370
F         4.68895936780504      -4.32832322461814       4.35923408283589
F         6.39803542194269      -5.04146902604500       5.59825541882647
F         5.40886422664781      -6.47151754032579       4.20359928432702
