29
C9H16N2O2 optimized with DFTB in AMS.
N        -0.42551005998339      -0.22789951869824      -0.60668217538892
N        -2.43732382183329      -0.61714905847698      -0.01937678743142
C         0.80145780102006       0.49904868729598      -0.89683266525814
C         1.65666671708007       0.64928418541505       0.36554930979898
C        -1.57145152284267       0.37123520052990      -0.25709183925636
C        -0.56169648301161      -1.59250757707409      -0.58438602742186
C        -1.84405955420520      -1.83969846497823      -0.21488252514024
C         0.95339837180885       1.47365424992968       1.44154566218872
C        -3.81654828118642      -0.42140531994991       0.39414304056640
H         0.51899177689878       1.48273184485356      -1.28217975668408
H         1.35265383509331      -0.04654433883187      -1.66802641375838
H         1.90443744320153      -0.34316345511299       0.75548200740273
H         2.58970553501823       1.14137108812359       0.07484542533636
H        -1.63920419565632       1.61616519168250      -0.14363308855745
H         0.24308833432939      -2.26123736280809      -0.83632253084989
H        -2.37372928807889      -2.76691415449374      -0.08054915383900
H         0.06998724762708       0.95104905402130       1.80887447366821
H         0.63945125517713       2.43775328544391       1.04122026298066
H         1.62990194624961       1.64180062765017       2.27937676178805
H        -4.47369260562032      -1.02197158456703      -0.23504360919677
H        -3.92775675388551      -0.72560200841629       1.43612060470189
H        -4.05344510508446       0.63851707634336       0.28822667735941
C        -2.85914653340711       4.88862307135237       0.26714057853628
C        -2.73722416241515       3.37014332865982       0.09618638119008
O        -1.53939049347389       2.93926130274620      -0.02339631693032
O        -3.74782272317622       2.67308766445531       0.08810378316530
H        -2.32619370226088       5.18730728526587       1.16909443954264
H        -2.39900397458912       5.38525202932471      -0.58576262683814
H        -3.90531739729357       5.17563528431423       0.34448695252526
