41
C11H21F6N2P optimized with ForceField in AMS.
N        -1.27818626302091       1.29797247759281      -0.22185545846736
N        -2.67388296826382      -0.39566738492572       0.13471634895487
C         1.10510949683584       1.94013351583855      -0.21057305798519
C         1.59347901051770       0.49498191620195      -0.38608023867396
C        -0.27220272626190       2.15115950344275      -0.85138869162020
C         3.01646757740881       0.31507966500606       0.15142255225540
C         3.46598279979194      -1.14472240495729       0.01334732114606
C        -1.81402407707876       0.17227813661768      -0.73241238706137
C        -1.81170456699009       1.44380161996204       1.00796589984185
C        -2.67962586283180       0.39364586836369       1.22847976602360
C        -3.38913341142094      -1.65649211326137      -0.04137529567745
C         4.85257744606090      -1.35671310614902       0.61219443988586
C        -4.85497895382782      -1.39383269362950      -0.36195208508858
H         1.82632530634904       2.63569903854698      -0.69267186769505
H         1.05339633764748       2.19121474028140       0.87156304734122
H         1.57269761476729       0.22600795560326      -1.46505992254839
H         0.91216705328344      -0.19143292786917       0.16270137686672
H        -0.57492247422195       3.21511527888853      -0.74554440654831
H        -0.21068413261310       1.92882113055501      -1.93974429731002
H         3.04681874090779       0.61498600221712       1.22200108223602
H         3.71198073235851       0.97007255973769      -0.41752731007263
H         3.48830023920523      -1.42784326067980      -1.06157361472991
H         2.74630777562635      -1.81359840928552       0.53378244003692
H        -1.56227433902446      -0.23895162397190      -1.70254307892913
H        -1.57695080142769       2.24304382892487       1.69879134277058
H        -3.25244770189906       0.20871720963646       2.12793296655805
H        -2.93555958680244      -2.23785255970026      -0.87368912406507
H        -3.30714921722216      -2.26481466559216       0.88525831196210
H         4.84604377442704      -1.11186090043411       1.69580891711759
H         5.59831993128870      -0.71677698637578       0.09429786837036
H         5.15062093430114      -2.41958169382070       0.49120194160144
H        -5.33777646193971      -0.83765732010264       0.46897294053781
H        -5.38444670641072      -2.35987354047014      -0.50440935093769
H        -4.93790467620621      -0.79857187552273      -1.29614038489466
P         1.21359794364009      -1.13702687080147       4.51911696316763
F         2.72242238014819      -0.75510867462190       5.24520615780790
F         1.95094066298653      -1.06678661839478       2.97246704386727
F         1.58604177052454      -2.81285039312739       4.56655139257549
F        -0.29771306606119      -1.45459861357748       3.76766370124860
F         0.48718075442440      -1.28159954236460       6.06841108070910
F         0.86089295912379       0.54255379721855       4.45748899092252
