44
C12H26BF4N optimized with DFTB in AMS.
N        -0.89722925418203      -0.09731197968126       0.46876018093896
C        -0.55996044713816      -1.54004434920223       0.20697357088301
C        -1.75312773897635      -0.12339506752972       1.71126445491695
C         0.34317888163208       0.70803109107784       0.73735472853269
C        -1.79250754944619      -2.31270206677899       0.64068285222724
C        -2.25137099937696      -1.56003732741360       1.88878134183681
C        -1.67193753562704       0.43187799099018      -0.70230198840815
C         1.40212395904578       0.61627586181866      -0.35490780285503
C        -1.97758745665119       1.92244223589510      -0.64621469600038
C         2.60157818595578       1.47640875557716       0.06582323187794
C         3.82882528616874       1.22168319437803      -0.81776347223509
C         4.55380901731315      -0.07233065842052      -0.43271740696186
C         5.76621355464487      -0.31511183121704      -1.33016550989159
H         0.29273355421004      -1.79582441736876       0.83855224980556
H        -0.30113523758725      -1.67358007799368      -0.84285994623986
H        -2.56609064647269       0.59439318710114       1.60216388116959
H        -1.12647446455808       0.16610250288154       2.55474195452361
H         0.76716364014804       0.32217839285482       1.66489182035700
H         0.03165594013431       1.74136508157954       0.90294034424164
H        -1.53469072939773      -3.34822758964784       0.86492850192341
H        -2.56360183155686      -2.30609297359329      -0.13511770640075
H        -3.33490572603615      -1.59326615741766       2.01169773965783
H        -1.77773351374596      -1.98967247953603       2.77392636841399
H        -1.09005105680397       0.21405067401974      -1.60090787264770
H        -2.60382525113492      -0.13686886005084      -0.74727542595721
H         1.72241525307155      -0.42274728020829      -0.45552290866440
H         1.01506473852128       0.95738467226241      -1.32054828472289
H        -2.69012345896318       2.14645105271764      -1.43998887174015
H        -2.42259838235119       2.21284348421219       0.30391935321744
H        -1.08323173090638       2.51942401563606      -0.81494633675950
H         2.85257908855556       1.25026105783236       1.10680608800700
H         2.32065563939226       2.53351328450375       0.00794219429520
H         4.51945327280846       2.06383317026002      -0.70332092213805
H         3.52577685144250       1.18372370555217      -1.87074925826775
H         4.88074688212955      -0.00250666048890       0.60935940035217
H         3.87270081530472      -0.92570430437658      -0.50602792273859
H         6.48433937491869       0.50087631585954      -1.23445395696605
H         6.25899918829379      -1.24567279029210      -1.04811636949505
H         5.46151006484611      -0.38671944765532      -2.37599928589897
B         1.88650948443601      -1.34212303510255       2.81851161468214
F         2.48397749214742      -2.18479526163480       3.70651171815964
F         2.30754262550882      -0.01281332546886       2.95813084508356
F         0.45758089212361      -1.35762426800213       2.97979622972187
F         2.12990293665914      -1.73531553552896       1.47456789746376
