41
C11H24BF4N optimized with DFTB in AMS.
N        -0.41832536222125      -0.53683653358390       0.13927332793003
C        -0.55069728729768      -1.66121200507050      -0.85705689394523
C        -1.49343446013755      -0.78700316359062       1.17511327366221
C         0.92887950051051      -0.57712053793205       0.80123600504728
C        -2.01973059382408      -2.04230213413258      -0.83977169309813
C        -2.40140742218208      -1.88871088229387       0.62970329342307
C        -0.65993911128404       0.75973885754708      -0.57235558768564
C         2.09904560114220      -0.43352880735010      -0.16702228605967
C        -0.45702857315232       2.00941689673215       0.28494266599572
C         3.38897494249688      -0.85871449391147       0.54649494763846
C        -0.96181364817712       3.23690326001595      -0.47324577857373
C         4.60203304748134      -0.70061275180054      -0.36637617985362
H        -0.19700936121842      -1.33004092086919      -1.83286860889380
H         0.05966256329853      -2.49269493445435      -0.50190937988870
H        -1.00903736138735      -1.10495715509450       2.09798814839412
H        -2.03371438874190       0.14289602512599       1.35373753745412
H         0.98756485065873      -1.54395896076867       1.30443270435280
H         0.94946088293452       0.21016756766763       1.55762280519109
H        -2.61203042568815      -1.38230571510954      -1.48011171300329
H        -2.14094528092948      -3.07274175722313      -1.17398659700126
H        -2.19423823747438      -2.82126993894916       1.15833230001766
H        -3.45354240461152      -1.63058488573687       0.75681532146080
H         0.01814397112996       0.79364653847338      -1.42845049185557
H        -1.68612811737001       0.72449828856506      -0.94756913945287
H         1.95130267801570      -1.08040184504239      -1.03484106974459
H         2.18808649509076       0.59863805965855      -0.52113435797712
H        -0.99651016773834       1.92327784873604       1.23128803734654
H         0.60377691207864       2.14187876454649       0.51095827683455
H         3.52498316611907      -0.25320213201942       1.44858664505332
H         3.29023129849291      -1.90575322035890       0.84867235770364
H        -0.42891889117265       3.34916958177646      -1.41774402786216
H        -2.02813062672415       3.14762328748890      -0.68239229820934
H        -0.79840283797928       4.13111635485260       0.12679386216996
H         5.50261487189501      -1.01981062557008       0.15750016579014
H         4.48716993244827      -1.31124350495117      -1.26256619402749
H         4.72547004851049       0.34079731876599      -0.66822522728819
B         0.39491362229241      -4.04702005508568       1.34301093533607
F         1.47430453949019      -3.46484520874298       0.62082102675446
F        -0.07506937283684      -3.04137273337859       2.23984029832062
F         0.78380497480489      -5.16809910622023       2.01126294929005
F        -0.64505174854243      -4.30103227511185       0.42565885965370
