39
C11H19F3N2O3S optimized with ForceField in AMS.
N         0.36633980295089      -1.61242375007835       0.30036173227751
N        -1.76056158768664      -0.96141912248949       0.26441623941636
C         1.76674306209480      -1.73140503535053       0.70208943631451
C         2.65227379967536      -0.73612555743003      -0.06087505326085
C        -2.99389748260806      -0.25809333595908       0.61538944755569
C        -0.61223382080852      -0.97135702569011       0.96951440634344
C         2.23964971909706       0.72142534064350       0.19320656337516
C        -0.18306016981045      -2.03032717116465      -0.85760362696292
C        -1.50314144486764      -1.62907111191033      -0.87891285471656
C        -3.20276219825445       0.97332685953051      -0.27687443255231
C         3.19014278356804       1.69471291125156      -0.49651280810889
C        -2.04858857120308       1.96912147500641      -0.16356102127105
H         1.86380885534734      -1.55501772074980       1.79299368507055
H         2.11976550613616      -2.76646497496691       0.50470648342271
H         2.60103918992441      -0.95542727383682      -1.14957886090444
H         3.70395188647068      -0.88065125454166       0.27073070979259
H        -2.96120454807014       0.06254401222001       1.68002164836172
H        -3.85677410986546      -0.94892314423384       0.49961028069143
H        -0.47431828957411      -0.46875522983536       1.91907109900812
H         1.21635424735919       0.89626433728380      -0.19933810835603
H         2.23886991755695       0.93150864850085       1.28403182475929
H         0.34304158151806      -2.56167243530587      -1.63981631467928
H        -2.21125957055782      -1.78442341406551      -1.68230544721793
H        -3.31416373276887       0.65779258823239      -1.33662854392422
H        -4.14273421362643       1.48138469947541       0.02923302301825
H         3.19295722053411       1.51798537266583      -1.59329408510150
H         4.22071483392846       1.57390623829500      -0.10044271182114
H         2.85627209535323       2.73685076002461      -0.30634681082011
H        -1.11332721519781       1.52270432134277      -0.56015305883377
H        -1.89433786993542       2.26570433007594       0.89575750833137
H        -2.27801762960751       2.87680861651944      -0.76002470505890
S         3.71230556930647       0.07121021082148       5.98058107941516
O         2.52501951151976      -0.09910997395452       6.93932423784773
O         4.35572903741794      -1.32307345680116       5.97499349988258
O         4.70381355649442       0.91084001803621       6.79871251799872
C         3.29126468524591       0.73488965487030       4.34569576519658
F         2.75100266789948       1.99885809826263       4.48325591372279
F         2.36660863413384      -0.09491501207832       3.74636787094049
F         4.42894811760987       0.80148680118367       3.56394774154717
