34
C10H22ClN optimized with ForceField in AMS.
N        -0.57316518398666       0.29457377792063       0.13908950972164
C        -1.57585254926765       1.19736291914981      -0.51191000396309
C        -0.85288465237952      -1.13026602442945      -0.21707342247890
C         0.77168373269948       0.69859028658171      -0.39171411205453
C        -3.04339275991958       0.80712287802971      -0.25510411654558
C        -2.30096874056353      -1.56299541048245       0.07249437503391
C        -3.29577851417055      -0.64834279930383      -0.63397204116780
C        -0.60062809871835       0.48768304686273       1.61463568679509
C         1.98268163240419      -0.07983309808987       0.17833494249755
C         3.29271041622935       0.44930139979420      -0.42040035956778
C         4.49921083843756      -0.30542268304801       0.13197236431955
H        -1.43176614384735       1.19846585693668      -1.61760574056376
H        -1.43118028839979       2.24937460865257      -0.17375729087636
H        -0.18918487415412      -1.81872248312033       0.34988253695782
H        -0.65283963935993      -1.30316449296791      -1.29973633304699
H         0.94376053077849       1.78226057802724      -0.19171802308680
H         0.79251655036641       0.58186406751797      -1.50051480788178
H        -3.69975167834923       1.45674997828938      -0.87451202883087
H        -3.32914563076158       0.98548531458567       0.80193001837628
H        -2.49714530896082      -1.56875421850820       1.16585773210950
H        -2.44658987332510      -2.60321762420163      -0.29209724349724
H        -4.33102166659571      -0.93212410142145      -0.34603934616858
H        -3.19822428553972      -0.77015718085408      -1.73525162982490
H        -1.61775701457545       0.37812528142962       2.03687293488140
H         0.02243682506513      -0.26869568046368       2.13694351470097
H        -0.23469625185687       1.50098791945783       1.89257598083515
H         1.89922099292979      -1.15888705789940      -0.06650470925598
H         2.04037528458736       0.03889787322246       1.27966960396653
H         3.40492404934104       1.52877847604547      -0.17918447796083
H         3.27333315921984       0.33981131881801      -1.52642329634946
H         4.41908510260244      -1.38870704685735      -0.09908534279480
H         4.56721412688101      -0.17090811633543       1.23236314978039
H         5.42760633212697       0.08890575874651      -0.33234182570243
Cl        3.09121268496244      -2.56408624478515      -2.73289962995729
