33
C7H16F2N2O4S2 optimized with DFTB in AMS.
N         0.89449884078786      -0.19046439524537       0.41253960058335
C        -0.22392415062784      -0.77831047501177      -0.38572639823396
C         0.20002550386595       0.47123566287974       1.56391825802744
C        -1.37265295985796       0.22589101070887      -0.27753633825993
C        -1.06612740221057       1.07457982902310       0.96746852925074
C         1.83941756345536      -1.23749389073615       0.93099684900172
C         1.62098550907318       0.83209016419009      -0.38969367089778
C         2.50526949119244      -2.05948605571068      -0.15920343610512
H        -0.49359751926361      -1.73440851636978       0.06846543751878
H         0.10573041002396      -0.94411572092002      -1.41130550400294
H         0.86800375145451       1.20477086724884       2.01448082579744
H        -0.04131942069610      -0.30214122352330       2.29620527624442
H        -2.32191964373496      -0.30318590016766      -0.17779309950028
H        -1.42576753890667       0.85158778973206      -1.17051275732432
H        -0.90690024488686       2.11927309797616       0.69380593567552
H        -1.88095746201567       1.03445474132888       1.69180793469438
H         2.59129240227600      -0.71245773435811       1.52318257349664
H         1.25643595501539      -1.88798003324315       1.58860826413601
H         2.09661634608403       0.35071706185697      -1.23995581083775
H         0.91305165495723       1.58012955999789      -0.73811063611395
H         2.37385831185488       1.30089885307639       0.23903135811442
H         3.11358391677182      -2.81964507333877       0.33016774376087
H         1.77528387288639      -2.55552082454029      -0.79794646760788
H         3.16540823838095      -1.44825632537698      -0.77072377922819
N         5.19282141146369       1.83236415684133       2.23188911423709
S         3.79768922959671       1.81730388570794       2.97176572168726
S         5.20077744622324       1.32886707595116       0.72561112444755
F         3.46426828910725       0.21660499724110       3.19455076550500
F         4.35296121178298       2.46765767942028      -0.08454228682832
O         3.96257649737588       2.32199621267269       4.28893564737275
O         2.65506877102380       2.25018905219032       2.20567259069878
O         4.44561491161321       0.13252879664030       0.45243562641292
O         6.52252613583356       1.43018351905790       0.21709283277733
