46
C12H26F6NP optimized with ADF in AMS.
N         1.28740098162819      -0.59016124612580      -0.28063487236648
C         2.10168254548564      -0.21156734168974      -1.49633266796753
C         2.20289846277081      -1.58642011091310       0.41566338221389
C         1.07188471578117       0.61361011281238       0.62487599832792
C        -0.02050292770138      -1.23405775628210      -0.68193427612650
C         3.54383108058602      -0.09888369731418      -0.99438269037802
C         3.60151139943339      -0.99307971528829       0.27216420265920
C         0.14930881716901       1.68760974972156       0.07876595510100
C        -0.88220872103573      -1.66325033902713       0.49105704113717
C        -0.01082041840555       2.79177145725457       1.13370718367068
C        -2.13232557998353      -2.40724631412458       0.01526520679326
C        -0.95883114672370       3.89753336660351       0.67871538941202
C        -2.99473576256931      -2.85076749189227       1.19590923050439
H         1.68894915758568       0.70202801125450      -1.94221323714956
H         1.98871479357051      -1.04101191350354      -2.21063558356819
H         2.09983994800435      -2.52561365654816      -0.15028570529088
H         1.87782363621056      -1.73280220236546       1.45309152788089
H         0.68908550009508       0.22143700245930       1.57431626416518
H         2.06957361377372       1.02258822775247       0.83316814660787
H        -0.54392373323981      -0.51257482860672      -1.32836396067131
H         0.25813357139748      -2.10221808140404      -1.30171025169734
H         4.23989959733177      -0.43304037594526      -1.77745293070283
H         3.80122465393577       0.94361558875156      -0.75816155135151
H         3.85886460271148      -0.41410011836864       1.17020219224300
H         4.34349474517878      -1.79908553990838       0.18277808717973
H         0.53575608514306       2.13228611845087      -0.85703779824454
H        -0.84926552725427       1.27203616250795      -0.14116977488429
H        -0.30877405410321      -2.30805004799266       1.17647461062030
H        -1.18596983572949      -0.79216862265676       1.09255265935192
H         0.98109363285756       3.21831403589095       1.36553404091785
H        -0.37651784381590       2.33511814126933       2.06946482320062
H        -2.72142931441740      -1.75555233952493      -0.65667386805813
H        -1.83488371612932      -3.28902852595650      -0.58192430862915
H        -1.96440516231060       3.49715340292781       0.47250870782750
H        -0.59514452094776       4.38718422863692      -0.23892875242114
H        -1.06174194820376       4.67125423231141       1.45436725894044
H        -3.31438946570626      -1.98460294529585       1.79514953089062
H        -2.42884699195698      -3.51857993627431       1.86333525337377
H        -3.89480104832278      -3.38450102605686       0.85649453647360
P         0.97785804617882      -0.98182524945424       4.28015272141166
F         2.15424059215293      -0.30859314658129       3.28189208681615
F         0.88960633950715      -2.27941954233214       3.20862029216682
F         2.14484256331787      -1.75933201913609       5.12250167206499
F        -0.20318951087815      -1.65496080649091       5.18916226895005
F         1.06298551166905       0.32743406102938       5.25830827317588
F        -0.19246353814098      -0.20246823677455       3.35046606422900
