54
C14H26F6N2O4S2 optimized with ForceField in AMS.
N        -1.88274401647911       0.10203757939400      -0.03406496777177
C        -2.06308646257460      -1.12982608719999      -0.85938703256965
C        -3.01871030042008       0.08191619022299       0.94033861449436
C        -0.58287512257423       0.04291425763985       0.70966912891296
C        -3.47114362093928      -1.63983122803578      -0.63539843957611
C        -3.76172722987063      -1.23313389077748       0.78175247873216
C        -1.98023564647908       1.30889917983945      -0.91835444989725
C         0.67199807137894       0.04834411235268      -0.19517562653183
C        -1.75763928595545       2.65045700082953      -0.19576928445321
C         1.94264139083940      -0.18362416247134       0.63188375465136
C         3.18788609061973      -0.17958214120665      -0.26257753935143
C         4.46303749936303      -0.37302951560372       0.56538384593517
C         5.69916082673658      -0.39906979097361      -0.32874546081200
H        -1.37215798508426      -1.94708195734840      -0.54668866414425
H        -1.88309453422965      -0.96416279510690      -1.94544235172925
H        -3.75624606133480       0.89490590133145       0.74922345381807
H        -2.69320466679885       0.20249384022044       1.99928189063623
H        -0.55758507117682      -0.87623526723746       1.34069237569870
H        -0.50423239683727       0.89290076946473       1.42369252363624
H        -3.54241227001640      -2.74116505824131      -0.76958470942897
H        -4.17401606067075      -1.12810400476766      -1.32989657680689
H        -4.85339712503550      -1.12088095129274       0.95979670010829
H        -3.34360307971483      -1.98930743188046       1.48330227628093
H        -1.25143386701617       1.24724816489969      -1.75634767027587
H        -2.98310346523382       1.34246039182801      -1.40309404896448
H         0.59726481222921      -0.74373427956376      -0.96956843551273
H         0.76656418027594       1.02804194342951      -0.70783793247978
H        -2.04453151984489       3.48129022936525      -0.87410892854103
H        -2.36925249731027       2.73060524232056       0.72545797189875
H        -0.68886679204058       2.78889962334205       0.06641771463102
H         1.87081231866688      -1.16331304012626       1.15418394491210
H         2.03395302098185       0.61896526627365       1.39687785211372
H         3.24821089420124       0.78871875599284      -0.80721429961684
H         3.10473710165234      -1.00042352210378      -1.00892165435924
H         4.56523483382761       0.45885881155980       1.29626894737910
H         4.40570469873057      -1.33076173833695       1.12739013628016
H         5.78748660869065       0.55371077083375      -0.89326721158937
H         6.60759587053975      -0.52766118484121       0.29656358469672
H         5.63815593401467      -1.24575458991260      -1.04558846856177
N        -4.23308684999609      -1.68092938479172      -6.00749155152347
S        -4.91168972445227      -3.14458719006024      -6.29682434885269
S        -2.75477527088682      -1.51387631945315      -5.31951894322128
C        -5.86894474383116      -3.64604191455321      -4.88002724118685
C        -1.51913025012873      -1.38298903659278      -6.59674639650793
O        -5.82376695863098      -3.03791112799955      -7.48576773333180
O        -3.84967379176053      -4.17362288731363      -6.56799689056510
O        -2.44125054121077      -2.69548666496564      -4.44438654536843
O        -2.73475967938164      -0.25764575066176      -4.49600061515476
F        -6.50656772760555      -4.84091946420649      -5.15491458612909
F        -6.81320935882696      -2.67841419681388      -4.59411054693831
F        -5.03941501894294      -3.81231600593904      -3.78743617881968
F        -0.26683357138365      -1.29776925049224      -6.01855931643023
F        -1.75286869270057      -0.24956112791405      -7.35218290555516
F        -1.56964060357239      -2.49572467195479      -7.41474335075753
