41
C11H24BF4N optimized with ADF in AMS.
N         0.12900491117641       0.38451741364852      -0.20221093522037
C        -0.55448565364710       1.15915710580281       0.90612309738216
C        -0.89665902436419       0.04978028117895      -1.26240052154120
C         0.77582036523653      -0.87594838055099       0.37959390504559
C         1.19648040201734       1.26706727089908      -0.85647981521877
C        -1.78686523877232       0.46362567774327       1.46912356133880
C        -2.07759668708459      -0.73029355746674      -0.71187871058410
C        -2.78265549806556       0.07457042115938       0.37900127124857
C         1.18338580498773      -1.93382317629942      -0.63164425343486
C         2.08791874283597       2.05387480678454       0.08845512869228
C         1.90175565470575      -3.06680648175755       0.10685320463590
C         3.18931697003656       2.73276087189928      -0.72918331222287
H         0.20076525161695       1.32684396417853       1.68488136971045
H        -0.82773969059262       2.13222694006391       0.46597590964012
H        -1.24093552325727       1.01679583654365      -1.66366605287655
H        -0.36667582333482      -0.48463077163094      -2.06208298460583
H         1.66318213530787      -0.53835301991378       0.93941489551647
H         0.05176120984369      -1.29655601266088       1.08913455522384
H         1.81180561326123       0.58845936366285      -1.46364752750334
H         0.64469449894954       1.95068027291815      -1.52264895376590
H        -1.49257229686863      -0.42615650863209       2.04921120046913
H        -2.24615047216761       1.15951152288824       2.19098566432390
H        -2.76081176834694      -0.94070111179085      -1.55121127050494
H        -1.74710640674784      -1.70685116663433      -0.32068147239653
H        -3.61630406940884      -0.50118068192257       0.81091108531570
H        -3.21838444171470       0.98767695567122      -0.06814246885468
H         0.30619363607934      -2.33868845171508      -1.16471394996810
H         1.88383298483945      -1.50849638194225      -1.36622712459177
H         1.50383366882265       2.81936333971440       0.62613805074448
H         2.56037018301522       1.38687385748688       0.82563240400428
H         2.16471167694422      -3.86896214490392      -0.59748565299383
H         1.26120478674713      -3.49976983918683       0.89263381310135
H         2.82892107458929      -2.69947921485934       0.56799132079535
H         3.80790804523670       3.35952157056263      -0.07164887298296
H         2.76873925832132       3.37106430992712      -1.52433152414150
H         3.84744126031192       1.97306505245292      -1.17366760305225
B         4.49798057149408      -0.45640271049949       0.72785812871753
F         3.82739937644200      -0.44952931120767      -0.55445586714358
F         5.20101492645285      -1.65909261125838       0.88301435038395
F         3.46226539916861      -0.37684128431365       1.74602659487222
F         5.32084648523268       0.67750828986041       0.82580175554186
