36
C10H20F3NO2 optimized with ADF in AMS.
N        -0.10066944781637       0.19458776100698       0.04482990698906
C        -0.72294454556291      -0.25764005939141       1.34752761508993
C        -1.14475539622496       0.78588682350998      -0.91003885959487
C         0.54675611625125      -1.00595156897516      -0.63572372166048
C         0.93818098753516       1.26837389319493       0.33475013621579
C        -1.87574253624015      -1.23374380190117       1.21522922760601
C        -1.99964310941440       1.89147537363880      -0.32452735032801
C         1.45447714235192      -0.67519999163120      -1.80467842689061
C         2.03580349052341       0.87746470733650       1.30106353553566
H         0.09069816268777      -0.70848291540127       1.93150011614170
H        -1.03957446493932       0.65734173429747       1.86757805623279
H        -0.56543282297535       1.20547228893091      -1.75788026039457
H        -1.74888762401441      -0.06973367565189      -1.24525919385462
H         1.09355671517758      -1.54702347402847       0.15145176562562
H        -0.28800608941224      -1.64036612067593      -0.96352727809694
H         1.34472355621000       1.53124611292664      -0.64653563789890
H         0.38449398633530       2.14709402380220       0.68686941388014
H        -2.21832699103313      -1.48761129858347       2.22994892719743
H        -2.72966023697552      -0.80443481988639       0.67440520604862
H        -1.57847396895777      -2.17261889014770       0.72841786711140
H        -2.78072134698965       2.11139861459984      -1.06936846159058
H        -2.50970859702759       1.62211613370625       0.61217645112209
H        -1.41317279853256       2.81658130828165      -0.21397765104067
H         1.68050369952867      -1.61609117843219      -2.32904283470305
H         1.00222425050078       0.02788148288064      -2.51731696189112
H         2.40676785203765      -0.23332638523998      -1.48165045297057
H         2.74354875819802       1.72068871868941       1.32497125761859
H         1.68127600367861       0.72080326159556       2.32953110882178
H         2.59980137000496      -0.00795071128579       0.97410017304601
C         1.13509126238590       3.28999452869502      -2.08852728556336
O         0.47550067125123       3.87809796942986      -1.20602446900844
O         0.87979730500298       2.24581227287615      -2.75291182739125
C         2.55632834918185       3.87576252545638      -2.39634555019181
F         3.52170980534801       2.89006147726499      -2.32332342990324
F         2.94535904888544       4.84950887263470      -1.52295358478277
F         2.62909011343986       4.40879077027716      -3.65437581872675
