42
C10H18F6N2O4S2 optimized with ADF in AMS.
N         1.26817585915098       0.24288076528831       0.36646443063131
C         0.65316724256294      -0.11850166821776      -0.96691794257826
C         1.64492359010889       1.69950367796575       0.16362636224180
C         1.51880224663093       0.58891653209671      -2.01475629574441
C         2.19735774261390       1.76173131663891      -1.25784381925434
C         2.53250380360992      -0.57073486233816       0.61634322760655
C         0.26742723655004       0.07919091598782       1.48773079637671
C         2.29437376809791      -2.02496778350747       0.95703253762667
C         0.79149765553975       0.49946836926980       2.84492424183464
H        -0.37140373184125       0.28344351760970      -0.95323122510923
H         0.60549164418789      -1.21023832906021      -1.06313151202568
H         2.35234847722513       2.02697904176296       0.93659594747083
H         0.70634558029583       2.26808164850876       0.25702307805563
H         0.88987374948000       0.93560147566572      -2.84730977148920
H         2.26646189411677      -0.09589214242492      -2.44016251717209
H         3.29096796805261       1.65638108308189      -1.24981765513267
H         1.97280471170069       2.73935644652785      -1.70675349201844
H         3.13506919097930      -0.46918854161670      -0.29594657005551
H         3.06433546477205      -0.05187974647340       1.42658204345646
H        -0.60294686711088       0.68433136934167       1.18792104121631
H        -0.03720183214940      -0.97796321854890       1.47678622310322
H         3.28197557155699      -2.50553806193987       1.02790348556373
H         1.82366171145894      -2.15075465591038       1.94104812785688
H         1.71367231759834      -2.56645872691510       0.19471206331880
H        -0.02426379626712       0.37546452592009       3.57384141642674
H         1.64458233184501      -0.10553624673216       3.18133934433806
H         1.10247184111218       1.55285516171303       2.85845684588102
N         4.12978358696929       1.19128857708090       2.85068507467270
S         4.86185663963086      -0.01162173161323       3.65244317540424
S         4.88320461507661       2.52586356538819       2.36032704400732
C         5.16730680502864       0.61870946199369       5.42551141793788
C         5.93413435309681       2.03152183590898       0.84655576512144
O         3.82707507420644      -1.03710865597557       3.80889419103606
O         6.18276165252170      -0.37556339682713       3.15534959674192
O         5.84122923183329       3.10221486048869       3.28982103246707
O         3.84010037827646       3.35703024410469       1.75213907455678
F         5.17813220009879      -0.45154575758916       6.25849031736634
F         4.18170953139869       1.46003847006994       5.81721844792009
F         6.34951646426234       1.24971839678346       5.52289816950446
F         6.02108930881376       3.09303822485510       0.00453111403988
F         5.34121595554728       1.00782685579497       0.15347608812638
F         7.17361049246070       1.65020583024253       1.18618802377192
