47
C13H28BF4N optimized with ADF in AMS.
N        -0.65093289748383      -0.00740159031625      -0.06830437091715
C        -1.95979010436220       0.58460717546775      -0.54572974352445
C        -0.95392455480764      -1.30845096766204       0.67230180509643
C         0.17823423926415      -0.33375657529998      -1.30654892470516
C         0.09808656463844       0.94680475930730       0.85093811672675
C        -2.94409235968945       0.82650765659386       0.58703019192586
C        -1.96275006698502      -1.13763495586325       1.79428269655128
C        -3.25524143674556      -0.47956139570642       1.31924603182879
C         1.55819412032227      -0.94273548326314      -1.05492175669290
C         0.27434454525237       2.34817576275885       0.30177200381139
C         2.73378366022695       0.03490502923494      -1.12178348898195
C         4.06412885846631      -0.68165681670279      -0.90002283218228
C         5.25914688139572       0.26887629747217      -0.87170482813419
C         6.58639070599966      -0.46348944489168      -0.68508526235758
H        -2.37533797096696      -0.14552971175397      -1.25971204393129
H        -1.72135480800122       1.50283296235138      -1.10065988864706
H        -0.00560565806663      -1.70131690806595       1.06685457603314
H        -1.34107186740894      -1.98948347531773      -0.10456890078517
H         0.25263688892737       0.60273408640955      -1.88026385554337
H        -0.46089354464178      -1.02197737623045      -1.88164135778563
H        -0.44591185470264       0.96291775216379       1.80105863147098
H         1.06229782492810       0.46971908911644       1.07384826329520
H        -3.85652181998120       1.26516969714601       0.14765171283089
H        -2.54435425662933       1.57724456163039       1.28942896133488
H        -1.49989173213086      -0.58394684045874       2.62599866932113
H        -2.15203972075071      -2.14800045127428       2.19408597795668
H        -3.93144703374886      -0.29352831741180       2.16900900004852
H        -3.78880130823663      -1.15860576791377       0.62801648825073
H         1.59205527962519      -1.47714100042351      -0.09142791716612
H         1.70664768523676      -1.72161032792702      -1.82432459373519
H         0.77093496204206       2.36928984127718      -0.67905448743974
H        -0.66830354802403       2.91213361256350       0.23729775857918
H         0.93076876950812       2.88691920082600       1.00255937577001
H         2.63215976583697       0.81104409171331      -0.34612537545018
H         2.73975880624202       0.54870680860233      -2.10320009990686
H         4.21283936399066      -1.44047919306848      -1.69232445519453
H         4.00949866522010      -1.21972071957093       0.06252689921273
H         5.28664054655839       0.86038933935228      -1.80607260559173
H         5.11565859590681       0.98794399744159      -0.04486520099838
H         6.77096582344508      -1.16468036046957      -1.51521230460034
H         7.43464617966101       0.23747236142218      -0.64158670118035
H         6.58057252697254      -1.04538246227328       0.24998840650133
B         2.02731983083780      -1.28555965906115       2.86034871138701
F         2.84021855576995      -1.72965189336410       3.89929996371713
F         2.68519492946057      -0.26201190665695       2.09096378264312
F         0.79275144721689      -0.74979639299610       3.35030599259595
F         1.71083829241123      -2.36648161560746       1.95572144576249
