32
C8H16F3NO3S optimized with ForceField in AMS.
N         0.84065600080515      -0.00127461284852      -0.03468061448464
C         0.07718617717601       1.22403645983907      -0.40968493024753
C         0.08771560345829      -1.23364694621726      -0.40880042209995
C        -1.35527378051404       1.24539890121882       0.15183893904105
C        -1.34469464651884      -1.26946127425642       0.15322340459223
C        -2.11976417343771      -0.01539608417371      -0.24386616220755
C         1.17115505623925       0.00106077118215       1.41389409986662
C         2.12108217185682       0.00376733572874      -0.78474293559459
H         0.00257315539647       1.30651879664114      -1.51909966119334
H         0.60703686996372       2.13846797725087      -0.05779779300100
H         0.62627084271159      -2.14276038019275      -0.05698622699478
H         0.01304154959184      -1.31634714639037      -1.51819330162164
H        -1.88919406137966       2.12556425864033      -0.26055196800143
H        -1.34513395823308       1.35875227034414       1.25587623938876
H        -1.33228403804331      -1.37775320630249       1.25773902257380
H        -1.87046381851486      -2.15940417907418      -0.25503478676620
H        -3.11055960134044      -0.01851922502040       0.25978826115796
H        -2.29300569995440      -0.01621859533156      -1.34269573369627
H         0.26627677075786      -0.00089310823199       2.05268901512974
H         1.76996072684409      -0.89626534429915       1.68780718963190
H         1.76458996185053       0.90251866074029       1.68618155150693
H         1.94598881239732       0.00297595722105      -1.88426561096942
H         2.72580214863586       0.90652751011275      -0.54146475114712
H         2.73262925951437      -0.89435044343333      -0.54130587185116
S        -2.67135663072314       6.75772498817656      -2.03353607683382
O        -3.02141450918604       6.14468434137696      -3.39746314475765
O        -4.03280512941516       7.23792566904775      -1.50964711685085
O        -1.96220192455864       8.06645788837493      -2.41103318264409
C        -1.75159987479736       5.67015074204000      -0.90904174641078
F        -0.56344597840175       5.28735149207942      -1.50231016056700
F        -2.51201705653152       4.55089772024048      -0.63530260142207
F        -1.48319984894921       6.34177448001667       0.26835392187389
