38
C12H19F3N2O2 optimized with ADF in AMS.
N         0.61663668444191      -1.74466431174917       0.16293535994700
N         1.46663341384771      -0.40869415563691       1.65044955063209
C        -1.51084040467327      -1.97850962329047      -1.09855267091340
C        -1.88910577239736      -0.50205791634381      -1.14575618644101
C        -0.00590216799527      -2.22269669298022      -1.08294168583719
C        -3.40425783473104      -0.30505710472959      -1.11357278040935
C        -3.81588823437772       1.15543823286473      -0.94117850034469
C         1.08057653466351      -0.50497794993913       0.36971813686420
C         0.67098559151826      -2.43894639238729       1.34799460696918
C        -5.32733654950621       1.30322340960333      -0.78513253890790
C         1.21292338450423      -1.60648338450143       2.28064963235109
C         2.02558962652320       0.78133667516236       2.28159069894006
H        -1.95260009342159      -2.41418875516073      -0.18510786421771
H        -1.91608565189761      -2.51209840399777      -1.97708542320770
H        -1.45495438511016      -0.02045933270679      -2.04547522991582
H        -1.46795798784514      -0.00105810969907      -0.25758710520491
H         0.49888044487865      -1.70129708080857      -1.91251131543064
H         0.24073545448455      -3.29197820812572      -1.16007674188702
H        -3.85581152124273      -0.71842110288832      -2.03631831313686
H        -3.80644467132311      -0.87308044403871      -0.25615593706917
H        -3.32603650104323       1.54841938175846      -0.03306220637905
H        -3.45481105994022       1.75656789111116      -1.79760966882931
H         1.14101649802276       0.27996876288040      -0.37244004843873
H         0.25384036834848      -3.43239434443086       1.44832832762817
H         1.37549993768208      -1.74102777976282       3.34169378977403
H        -5.66214126339277       0.74012300565670       0.10012368459938
H        -5.62166650514432       2.35576522634253      -0.65059197592979
H        -5.85949477774269       0.91222373803924      -1.66809797986340
H         2.99927036144833       0.53038740568756       2.72215173726380
H         2.15617895229735       1.55745550172754       1.51979353197143
H         1.32769333878176       1.13840079182069       3.04846790035985
C        -2.54163922255241      -0.47301805776498       2.26152272616459
O        -3.75813064497214      -0.27409008024836       2.11648397212236
O        -1.78385754033070      -1.42657909671668       1.94195051451159
C        -1.74682075593207       0.71971382179558       2.92069723549542
F        -0.79740374354160       0.30224517744733       3.84231796617738
F        -2.50797129543609       1.64321306438996       3.55499333526941
F        -1.02491999739331       1.41691077841982       1.94843058742263
