64
C18H26F18NP optimized with DFTB in AMS.
N        -2.06706998563264       0.66382974262940      -0.46728575428481
C        -2.55133489963893       0.17588192770695      -1.81818352970677
C        -2.86441394437058      -0.10042813317343       0.55825204782663
C        -0.60686639170943       0.33933353651792      -0.29116579939601
C        -3.62561060255346      -0.87024509723061      -1.55380898079700
C        -3.31107166774721      -1.37076675998202      -0.14830658989014
C        -2.33245256193578       2.13732043773786      -0.35062220002988
C         0.32296925866649       1.09755866949214      -1.23553851104298
C        -1.91301657834331       2.73774057281243       0.98103427839462
C         1.75337797337149       0.56348242255108      -1.09740011789365
C         2.70381330781410       1.34523630903746      -2.01016766782702
C         4.14020705843178       0.82661124717570      -1.90182795229847
C         5.06938648916213       1.59544445091069      -2.83976063960349
H        -1.70743484686163      -0.25286420447981      -2.35647264404229
H        -2.93160645677642       1.02066804601796      -2.38733448760674
H        -3.73133069716739       0.50463042794074       0.83218695202052
H        -2.25376850036993      -0.27862985286721       1.44291565024007
H        -0.51198969448505      -0.73833754297659      -0.44913732859775
H        -0.34645202269535       0.55746360039502       0.74764674170502
H        -3.58554303832161      -1.66467195502670      -2.29905194444006
H        -4.61816670372756      -0.41428072505151      -1.58240632262688
H        -4.17911746630715      -1.80869222434706       0.34506928026950
H        -2.50455765424005      -2.10817821361466      -0.16683032659152
H        -1.80231811272577       2.62695355997575      -1.16735445645017
H        -3.40531292390210       2.27219561699170      -0.50679206424182
H        -0.00406807924833       0.98077362989778      -2.26934833777718
H         0.31586607936022       2.16398229302033      -0.99854729136885
H        -2.22998104128138       3.78037382092331       0.98609848545683
H        -2.38526485221440       2.23056446888780       1.82114837376631
H        -0.83262535404977       2.71161787489417       1.11127813715919
H         1.77319501701342      -0.49819275511687      -1.36589243896330
H         2.08015908164674       0.65318592195600      -0.05509622305833
H         2.67426116273548       2.40617020215827      -1.74067182818112
H         2.36364108379939       1.25563042970047      -3.04534479514837
H         4.49208641511192       0.93014914764895      -0.86925040116408
H         4.16315408478513      -0.23824265808703      -2.15791493773792
H         5.08159011323473       2.65489405461117      -2.58071306117758
H         6.08491051087526       1.20627923732479      -2.76324049414321
H         4.73420939533914       1.49544563949417      -3.87262443307464
P        -1.74287940218256       1.98670739487612      -5.64808546134342
F        -1.63254946368583       0.73799761766970      -6.73359643682855
F        -1.56422590087634       3.15074574278262      -6.82117998717377
F        -1.95219978955474       0.85111179478206      -4.37626022123796
C        -3.66477125490280       1.89883461800580      -6.02187037249544
C         0.24229411885940       1.82253224330493      -5.47048973682462
C        -1.81087666637759       3.42505747640461      -4.19460972886902
C        -4.45979125742109       0.67507816920684      -5.48947057136151
C         1.21507353982051       3.02822529856984      -5.29079557441543
C        -3.01768793169947       3.99673660409494      -3.40146181688130
F        -3.83948324609522       1.91417033710559      -7.35073959366260
F        -4.28948540115633       2.98976178819480      -5.53223725636556
F         0.68455405150817       1.22416320571562      -6.58732615109510
F         0.53185269474451       0.98518929411705      -4.44424111423297
F        -1.13530962876957       4.50103371654565      -4.62996502074956
F        -1.05222281006293       2.86816034931063      -3.19415863428216
F        -5.70614044408176       0.68517115675839      -5.95953846982845
F        -4.54496550076835       0.70214337943158      -4.14786919172950
F        -3.90236862469036      -0.47940582482693      -5.83114152552874
F         2.46213231363695       2.60265863049203      -5.52808820836989
F         0.95936672486657       4.01865658631347      -6.13243299583071
F         1.20929397548514       3.50944998460834      -4.04704855607776
F        -3.72358512365632       4.89119758293009      -4.06342713996388
F        -2.56633055220147       4.59024550494391      -2.28069397820826
F        -3.83229684048076       3.01180945690578      -2.98544853912039
