39
C9H20F2N2O4S2 optimized with ForceField in AMS.
C         2.69789789255599       0.36764968517825       1.56012196473906
C         1.64207289578541       1.29699861817216       0.97793249547560
H         1.43743377743742      -0.81021859083498      -0.90409748777598
H         0.43498170389804      -1.68849309212444       0.29836340358462
H         3.19594461597051      -1.43204214948659       0.43239239051807
H         2.13173885462428      -1.69941654203814       1.87220561088731
H         2.64332284521796       0.37749685845997       2.66965845440131
H         3.71869668364453       0.67811595309017       1.24703309263006
H         1.34879227165051       2.07987155621798       1.71533531877922
H         2.10467290209704       1.82461276896199       0.11030014104378
H        -1.19613709121707      -0.49716493162836       1.48355494215795
C        -0.42763825922134       0.27558725994612       1.70009040147274
H         0.12170907320512      -0.06804984673259       2.60458963930523
H        -0.94609011414032       1.22624056606343       1.95516379252548
C        -0.19373762903627       1.14957507135687      -0.60138480551433
H        -0.31755133411943       2.23076489718463      -0.35847517029807
H         0.44736704412083       1.12639683699976      -1.51211764542992
H        -2.30961038377211       0.72278119695737      -0.12669834465205
H        -2.97714464087550      -2.11210156996625      -2.62049956183536
C        -1.63523229941015      -0.77751327328423      -1.56332166448691
H        -0.82343758532350      -0.90141168741569      -2.31196800337227
H        -1.49958393818769      -1.51864289633530      -0.75227709604503
C        -2.97532471887122      -1.07141089462907      -2.23374771675844
H        -3.14402985361935      -0.37731659815780      -3.08427502712234
N         0.49035595684277       0.46756984978054       0.54616447818767
C         1.11452689183650      -0.82079541439118       0.16201862536892
C         2.35621773592858      -1.01113048349733       1.02751946063662
H        -3.80429729070013      -0.96320438276124      -1.50205290918851
C        -1.60761293017856       0.64231726289298      -0.98283795264155
H        -1.99389425311853       1.34126337252052      -1.75791421442483
N         4.11277603904775       1.32992867681710       5.43135412655431
S         2.93349297432347       0.35371272737407       6.00865417946351
S         4.79586275911138       2.48359526408972       6.36926507744274
F         1.49859920050032       1.21349121938338       6.08197115993658
F         5.81100047057785       1.75496156091610       7.48397550305762
O         2.76258888614343      -0.82600276655778       5.09463211111710
O         3.28924142817954      -0.12330806137156       7.38900898158081
O         3.72994560885372       3.24628502234685       7.10530799471394
O         5.59091611773820       3.42525656340259       5.51033714246535
