37
C9H13F6N3O4S2 optimized with ADF in AMS.
N         0.53220192267584      -0.47858863597677       0.45701116202710
N        -0.66432060233096      -1.71916167143676       1.77933751321126
C         1.51339888223356       0.51447200779239      -0.00720910194335
C         2.61145382024682      -0.10993314176348      -0.85886400209581
C         0.24622381509841      -0.73773895208018       1.73972217859081
C        -0.19603155322508      -1.33224928616761      -0.34160080039756
C        -0.94561017004749      -2.11283851903754       0.48999716170409
C         3.64460472384286       0.93994574035547      -1.25154010675186
C        -1.16853366794916      -2.35812699578878       2.99398255785365
H         1.94744380267477       0.96464139427723       0.89745031440689
H         0.96055542937641       1.29435490210343      -0.55782451421746
H         3.07800313494215      -0.91838613430641      -0.27927904557831
H         2.17250343855606      -0.56725573271395      -1.76278818102692
H         0.70563467011233      -0.26901743839636       2.60059556884933
H        -0.11070531830900      -1.32574434648116      -1.41990955819564
H        -1.63941686698756      -2.91699934059147       0.27875083881160
H         4.09267162869821       1.39994713002364      -0.35667785787107
H         3.20255611235945       1.73936509110484      -1.86743008277930
H         4.45776676599087       0.47686462815613      -1.82840905689558
H        -1.06033376420761      -1.66389023120492       3.83335036543859
H        -2.22763531889788      -2.60159631085702       2.84696862027781
H        -0.56543374303016      -3.25154546516649       3.20044454543480
N         1.87992424826300      -2.95416667079985       3.24289302304675
S         2.06459017362707      -2.96575956236205       4.84352123384394
S         2.95876402707131      -2.52675058057655       2.12986176536568
C         2.01161062939762      -1.16804594149524       5.44579996866562
C         4.52106571075093      -3.59550570834170       2.28307371440005
O         0.81388419778222      -3.49437784531229       5.37755515586203
O         3.35249336544960      -3.44606108582634       5.31765212331198
O         3.44255702949081      -1.14725627336568       2.26470303266004
O         2.38756048834472      -2.93652774457273       0.84610101709743
F         1.81008260761245      -1.15861706700207       6.78148622697968
F         0.96122889108069      -0.48511865185931       4.86724800955823
F         3.14099351460320      -0.49026890084617       5.17279981086144
F         5.17834938680369      -3.51125497003763       1.09718244072277
F         4.19918419071654      -4.88520255517138       2.51032480912418
F         5.33935980448330      -3.15657067137523       3.25321833054711
