44
C12H26BF4N optimized with DFTB in AMS.
N        -1.55992460335132      -0.16872006783805      -0.19731302818596
C        -1.76583419755677       1.30881268461273      -0.37581118646875
C        -2.51928994748217      -0.71351025100995       0.82536265316172
C        -0.17970565590691      -0.43687956719577       0.35474860070915
C        -3.21548833407699       1.68307688050307      -0.64996299187425
C        -3.97148219833651      -0.35891034047960       0.54189799354499
C        -4.12418285065941       1.15779774989052       0.45730332057207
C        -1.72149051508425      -0.87886202554927      -1.49093445474226
C         0.97447829648430       0.20583719023838      -0.40548092598074
C         2.27516991106686      -0.12965782613883       0.33575821709755
C         3.47387961654103       0.56066187162879      -0.31961327572910
C         4.77042132643890       0.23951843908968       0.43017579968084
C         5.97130348365350       0.93328745598647      -0.21064684791940
H        -1.13080836885263       1.62856885361019      -1.20328858455980
H        -1.42536372328242       1.78540352690714       0.54593359771609
H        -2.22632963343672      -0.27861817255280       1.78435397445654
H        -2.37439689007827      -1.79593851592828       0.85825347055449
H        -0.17523585314666      -0.05954268085520       1.37904926179850
H        -0.06337842226422      -1.52434816203738       0.38057547165319
H        -3.26305061255678       2.77444867697295      -0.68563703896222
H        -3.54443518820513       1.30270150268510      -1.62281576988752
H        -4.32478528120332      -0.83200837931513      -0.37975661363712
H        -4.56849910245549      -0.75118554262224       1.36922949866580
H        -3.83221308841337       1.60603443213102       1.41192004858717
H        -5.16361817859548       1.42092613707799       0.24874470974820
H        -1.00480802729857      -0.48048246659351      -2.20587312645855
H        -1.53819681235263      -1.94098764036686      -1.33714456043320
H        -2.73021401031030      -0.73259566727106      -1.86898729072385
H         1.02382934079279      -0.15319146566935      -1.43862273110356
H         0.85689131774817       1.29114615186994      -0.41360939298138
H         2.18150348859252       0.20513705297314       1.37346092381285
H         2.42799624145659      -1.21463922457517       0.34026922578662
H         3.31163377300089       1.64352481145919      -0.31960626461897
H         3.56207470092801       0.23538739676640      -1.36279828715617
H         4.93311284385661      -0.84388233148480       0.43032464617365
H         4.67606289082409       0.56383743421013       1.47142799628387
H         6.09409566226965       0.60941594594284      -1.24546571823763
H         5.83728718971959       2.01581252337562      -0.19998696114994
H         6.88099031515800       0.69079514178602       0.33924529542622
B        -0.18945363167535       1.85454929707200       2.78737095220953
F         0.23963256764352       2.36803635531805       1.53680310417179
F         0.56659306585755       0.70294129257109       3.06027889694406
F        -1.55076179849119       1.43238890017975       2.59345097744971
F        -0.10894981005977       2.78643722752504       3.77694617130580
