37
C11H24ClN optimized with DFTB in AMS.
N         2.14106176518189       0.45703355625871       0.08414820376221
C         2.45986107540759      -0.80599174209067       0.84036398502268
C         3.25029052078530       0.58053285023651      -0.92244849199617
C         0.83250361371921       0.34641722684883      -0.63867747147678
C         3.36904046627237      -1.64492705761254      -0.06161720890903
C         3.52898598233410      -0.84711309943993      -1.35807357952209
C         2.14925329393591       1.63909333887779       0.98739408529935
C        -0.39782447566804       0.35406374710727       0.26792754464153
C        -1.64321879516065       0.00127592348008      -0.55424857473324
C        -2.90151414659992       0.02305307875658       0.31885933545574
C        -4.14853552810874      -0.33024934214593      -0.49787526059685
C        -5.40528574387466      -0.30931465600279       0.37014456749107
H         1.53212970861553      -1.31431909387173       1.10216102637599
H         2.99403044545125      -0.51513947460387       1.74679640689574
H         4.11913329700230       0.97740319974894      -0.38781696908244
H         2.94768073200688       1.25312468506712      -1.72490252990387
H         0.86301761725699      -0.58064195788301      -1.21658696115774
H         0.77686510879397       1.18807060847603      -1.33471040640654
H         2.94790211588245      -2.63452396330570      -0.24593034610198
H         4.34019392617688      -1.75572711218054       0.42598758721886
H         4.53802155672532      -0.93291448239104      -1.76265724558111
H         2.81959024168943      -1.17876901333919      -2.12174224265727
H         1.43359312120746       1.48393715211545       1.79098368704186
H         3.15662701671231       1.73081454622807       1.40151638350748
H         1.88800170760931       2.52410408013407       0.40974518165261
H        -0.28549540079770      -0.36956165221670       1.07949547729154
H        -0.53126808378160       1.34360765229713       0.71282484181204
H        -1.51915037012952      -0.99398762845581      -0.99432737117668
H        -1.75267029832848       0.71877476781756      -1.37446280447509
H        -3.02147438946990       1.01899731784758       0.75854819908737
H        -2.78618783845970      -0.69274116593304       1.13982070842043
H        -4.26019067430599       0.38603561657586      -1.31889350886079
H        -4.02512530902880      -1.32592679970103      -0.93717968066580
H        -5.55605398555698       0.68145472231924       0.80082722820967
H        -6.27810987609074      -0.56330737783389      -0.23137930984135
H        -5.32071866295444      -1.03195725763669       1.18283382018380
Cl        5.10709941864947       0.63225904085128       1.69494591197485
