49
C15H31NO2 optimized with ForceField in AMS.
N        -1.53881482468909       0.10143446274517      -0.08386918545098
C        -2.55772465644272       0.49226720345626      -1.11311207562344
C        -1.77295918542519      -1.32657815093808       0.30980049200429
C        -0.19569470406388       0.20147562102954      -0.75305449055746
C        -1.61491531011778       0.97806967707065       1.13712151062158
C        -4.01515378866482       0.26040564856767      -0.67832530617394
C        -3.21404943052168      -1.62094794087723       0.77260419176940
C        -4.23017441627785      -1.19648152627374      -0.28237638713424
C         1.02940507964577      -0.11255914672480       0.14168890572307
C        -1.26548721243571       2.46179006614761       0.91937614820566
C         2.33262842635176       0.05740837638574      -0.64988433843554
C         3.55333376444945      -0.28946325647132       0.21044780296300
C         4.85296622474865      -0.09230258619469      -0.57742242882122
C         6.07133160856660      -0.43426153952221       0.27440394499186
H        -2.40489001264516      -0.09944613969037      -2.04619896064585
H        -2.44140148991749       1.55254869326281      -1.41951848724067
H        -1.09997952875488      -1.62616678287416       1.14197639868146
H        -1.55066820607749      -2.00777905476259      -0.54402354748283
H        -0.05807677909818       1.21364071053440      -1.19468683594241
H        -0.15362232027844      -0.49521332800704      -1.62267572868994
H        -2.62634093300989       0.95676955831964       1.58630979636981
H        -0.95287407031032       0.58716303746923       1.93965955220584
H        -4.68746007686049       0.50128671949791      -1.53019582411004
H        -4.29973887254293       0.93626221261732       0.15380714107509
H        -3.43192747287199      -1.11714486240490       1.73728837658433
H        -3.31938112843735      -2.71293059263325       0.95124433729487
H        -5.25878016325713      -1.32515908755341       0.11822802579381
H        -4.12634792674408      -1.84582380689654      -1.17971491117769
H         1.06957746405088       0.57263503986168       1.01230276029649
H         0.97984671659533      -1.15823017780850       0.50865269738816
H        -0.22126846454679       2.59791066139930       0.57478890712676
H        -1.96629459557752       2.94995724719299       0.21436177346926
H        -1.35755288598620       2.99432267541097       1.88950281340410
H         2.41554558194097       1.11127983960721      -0.99652462301458
H         2.31347045398949      -0.60769187716220      -1.54132505395419
H         3.48089396041219      -1.34911914262786       0.54120069384526
H         3.56735478145863       0.36189997856598       1.11182210432278
H         4.84878035197851      -0.74489432348209      -1.47762707968562
H         4.93303965849451       0.96516159274508      -0.90984239960541
H         6.03087753965912      -1.49673305411110       0.59615516964278
H         6.99588353499493      -0.27836355479531      -0.32034742853711
H         6.11102826346101       0.22018111354496       1.17111889326361
C         4.52139075160616       4.42688898330471      -0.37147797408482
C         4.27405623424533       4.12715266885089       1.07325125432157
O         3.45599843438734       3.27816747545247       1.38785978608837
O         4.88673369280752       4.72938617827366       1.94038346242873
H         4.90273412617959       3.51764147024855      -0.88091649537899
H         3.57353115809627       4.74537416624431      -0.85393494505253
H         5.27053342263502       5.24030492000468      -0.48116240478243
