40
C10H19F2N3O4S2 optimized with ADF in AMS.
N         1.91039075218416      -0.18145274097801      -0.02624206776757
N         3.33772645636137       1.44033163503346      -0.23448045875458
C        -0.45194595504771      -0.94296857437058       0.24781249208281
C        -1.25345713136384       0.06821884746367      -0.56601720347675
C         0.92872792989993      -1.23614759320882      -0.33038079694369
C        -2.56291810489004       0.44926479386704       0.12208480312093
C        -3.46515561355327       1.31703916851385      -0.75160416265686
C         2.43899400653622       0.69740168744788      -0.89085733819206
C         2.46816783608428       0.03165947047336       1.21737391061222
C        -4.72147295923355       1.77565825492253      -0.01607536380425
C         3.35997553843934       1.05340481773228       1.08637801981515
C         4.08390426760218       2.56453231409384      -0.78969758841158
H        -0.34211407082184      -0.58787009442192       1.28714536729943
H        -0.99771652040788      -1.90193021904355       0.29696360532187
H        -1.46635641781582      -0.36022541171282      -1.56454600178224
H        -0.66449471803072       0.98598149346442      -0.72548605309932
H         0.88819792112757      -1.32987303229279      -1.42644538718085
H         1.34933345525218      -2.17099043823941       0.07222960497277
H        -3.10674205033830      -0.46806212714441       0.42114813488639
H        -2.32147878116140       0.99748710864629       1.05006383432466
H        -2.89176523669003       2.19644351837432      -1.08604903213368
H        -3.74675831273302       0.75167283571180      -1.65971005417074
H         2.14186246803814       0.84108946212964      -1.92203899250378
H         2.16258734803177      -0.53620403561886       2.08677562632954
H         3.96064692274718       1.56903715024375       1.82439978518422
H        -4.45331704348379       2.36650817561471       0.87430347396901
H        -5.35200881444187       2.40757579652335      -0.66019686232025
H        -5.32760218541214       0.91724051497206       0.31765180852399
H         5.15820196039792       2.34577026994805      -0.73443019080447
H         3.76750601548236       2.71685143470679      -1.82576125577787
H         3.81827607013431       3.45780626010093      -0.21141344291953
N         1.36244144941264       3.43747239129282       0.30876134696927
S         0.70280685746282       3.44799997376989       1.77576737516602
S         0.53368186761007       3.80438378882293      -1.01421386672578
F        -0.01537981059911       1.93124862924410       1.81710073716692
F         0.63522212692287       5.44270257414775      -1.06648671503740
O         1.79314347669089       3.31209107737861       2.72632286210543
O        -0.39572814287890       4.36009645185677       2.00263628042517
O        -0.88770124144556       3.52303919346314      -1.00000596726151
O         1.34649708493059       3.36566944767114      -2.14445422815104
