45
C11H20F6N2O4S2 optimized with DFTB in AMS.
N        -0.48361287716300       0.02818150118725      -1.07466709724073
C        -1.08783969317838      -1.34187800044730      -1.17746989485775
C        -1.15438005054369       0.60989676900682       0.13037778789884
C        -2.54475700262118      -1.18057685462979      -0.75075166893435
C        -2.59922798864756       0.12595017825443       0.05605740417712
C         0.99727235105192      -0.04811246167363      -0.84922985587351
C        -0.83108608573675       0.80775168008057      -2.31651283430229
C         1.76902451146681      -0.71724147987759      -1.98507597363975
C        -0.29922373522686       2.22837856508866      -2.36361707218845
C         3.25048991229636      -0.78996307221205      -1.62122571167053
H        -0.54625185505686      -1.99520181931650      -0.49003165002483
H        -0.97633233417147      -1.71111079139111      -2.19597936220448
H        -1.05419191162262       1.69434401155155       0.12329725815678
H        -0.65364331620232       0.20901235506373       1.01485858539313
H        -2.85319074419519      -2.03634174185524      -0.14808866085961
H        -3.19966092924121      -1.12505171259983      -1.62087110833252
H        -3.22895851333431       0.86443101595186      -0.44381294633244
H        -2.99498934768809      -0.03331332954086       1.06026609272574
H         1.14350564368376      -0.60868373462553       0.07908751786083
H         1.35205225493574       0.97316099974561      -0.69052003811168
H        -0.43490266770641       0.24429751715095      -3.15927796384781
H        -1.91845957791482       0.81180589776120      -2.39713356050699
H         1.38520016222865      -1.72442678010341      -2.15885933919686
H         1.65442155916229      -0.15231168957381      -2.91018908699745
H        -0.68278494678362       2.84778883340810      -1.55359720470497
H         0.78877552511968       2.25511946886966      -2.35304735525642
H        -0.63643727239567       2.64907668083087      -3.31101227260294
H         3.65728830981512       0.20965724590443      -1.46381902413500
H         3.39858156489559      -1.37540070226330      -0.71276424644728
H         3.79824951463424      -1.26394399339458      -2.43440860827711
N        -0.86998369888573      -1.06013504198910      -6.58400844422835
S        -0.87734531609388      -2.02396137883677      -5.31964076904112
S        -0.67486829848492       0.51179980107401      -6.31503711232348
C        -2.61834396038822      -2.03621168526721      -4.61353459668073
C         1.16399353302529       0.76002495321404      -5.97880171330821
O        -0.69452365688775      -3.37176291941022      -5.77538599006790
O        -0.08502498831515      -1.58652666093445      -4.17133767624961
O        -1.31572583070153       1.02913075291402      -5.11898427017341
O        -0.91013584621961       1.19220105031250      -7.55484129725581
F        -2.72699575925113      -3.06509122474389      -3.77510153823821
F        -3.53876628298213      -2.14446591425583      -5.54981719291082
F        -2.85701571165360      -0.92991765652277      -3.90345177943989
F         1.64835249858564       1.70042065118638      -6.76894704577019
F         1.84823136063669      -0.35409532398238      -6.16568375066521
F         1.34063127095590       1.15146035259051      -4.71180252141373
