41
C13H24N2O2 optimized with ForceField in AMS.
N        -1.27890836337769       1.29631557337294      -0.23636417405169
N        -2.68550566422198      -0.39300606090028       0.09920431470874
C         1.10701600736406       1.93432718065209      -0.18752492023637
C         1.60554112407377       0.49266415562540      -0.36383984293187
C        -0.26019933009982       2.14567141799826      -0.85081469358504
C         3.01499975952659       0.31389115288362       0.20988618653887
C         3.47247131182409      -1.14375904067519       0.07910991658712
C        -1.81600935531838       0.17602570357151      -0.75776880347917
C        -1.82547864085171       1.44002348213013       0.98804699260533
C        -2.69902580300092       0.39175354378085       1.19609390352795
C        -3.39672650435139      -1.65518079259939      -0.08521052481106
C         4.86545808289054      -1.34305437701299       0.66758207336251
C        -4.86837308600138      -1.39751975577829      -0.38182091547463
H         1.83410404223933       2.63550592860077      -0.65222272436748
H         1.03650087505716       2.17862862091827       0.89499981569345
H         1.61552567233978       0.23448504257429      -1.44588132266909
H         0.91277511339151      -0.20232727637473       0.15897980972436
H        -0.56159882314128       3.21074950935253      -0.75109410168359
H        -0.18177459816769       1.92181799060846      -1.93768386845091
H         3.01712555402232       0.60669160227420       1.28237805649558
H         3.72257442610164       0.97438797100466      -0.33826879798776
H         3.48946479631802      -1.43536436966873      -0.99389908502316
H         2.76010000685640      -1.81009656617870       0.61323940840890
H        -1.55941835505614      -0.23026419475943      -1.72885131825052
H        -1.59395265111333       2.23617853540397       1.68397059441895
H        -3.28032923195340       0.20339316426142       2.08956570638102
H        -2.95192067273860      -2.22235354580612      -0.93198934551015
H        -3.29928407975469      -2.27603783870682       0.83173322995809
H         4.86597527126751      -1.09220552842087       1.74985323368694
H         5.60301846986560      -0.70175134003912       0.13976597568313
H         5.16903972429998      -2.40467301025132       0.54898395530431
H        -5.34151463489036      -0.85181170227722       0.46145535025066
H        -5.39430325294285      -2.36505877113868      -0.52460803824498
H        -4.96749210906327      -0.79489552324441      -1.30973286557115
C         1.90433168843598       0.15131609113886       4.67529001012131
C         2.53371971325234      -0.98602577859489       5.41567581867999
O         2.17435428238359      -1.24612759145064       6.55252711793004
O         3.40592998649348      -1.65690122683023       4.88740422760959
H         0.81822154376147      -0.04120494540978       4.54945636367466
H         2.04525049797299       1.09247249747504       5.24737995350008
H         2.36640415460676       0.26864245289058       3.67241697937705
