50
C14H15F18N2P optimized with ForceField in AMS.
H         0.58784297932459      -0.48805667804712      -4.94541054939341
H        -1.08168595303006      -0.74710619899848      -4.30486582255233
H         0.13893595223818      -2.07481467022257      -4.19715237225878
C        -0.00631423792392      -0.97538228360863      -4.14416181813110
H         2.49666916988684       0.08115261296904      -0.39121768624012
H         2.51392010922086      -1.05736161566309      -2.81020021288961
H        -1.36575284146287       0.38715176197350      -2.03874171784381
N         0.43125504182091      -0.48598339723563      -2.84324829091615
C        -0.31492032389625       0.15238689030804      -1.92092340440801
N         0.41369067601430       0.45006111970526      -0.82720037981886
C         1.65878762895718      -0.00718174288517      -1.07014651314640
C         1.66860032329331      -0.59121903008122      -2.32060679159274
C        -0.05195693766156       1.12618731734196       0.38113548021498
H         0.65172216514129       1.94826789780553       0.63684398238561
H        -1.05348829070743       1.57449821491638       0.19755904794069
C        -0.14807443609906       0.13051339501697       1.54076924891545
H         0.85263332560812      -0.31767998127096       1.72708375900267
H        -0.85194827952111      -0.68348906394960       1.25897594138692
C        -0.64348924406244       0.81674316348922       2.81838707192112
H         0.07959637758652       1.60432319102152       3.12355752976627
H        -1.62883996841374       1.29660065914541       2.63070205714721
C        -0.79459324961163      -0.18602732454302       3.95854426683933
H         0.17936234204384      -0.67398826257938       4.17600549681870
H        -1.54273964404371      -0.96274270239170       3.69155768714266
H        -1.14095924398539       0.34010261919539       4.87296336022260
P         6.10866221931767      -3.60301853834302       1.57226488285273
F         6.01753478593231      -5.23040337661987       2.13532117921358
F         4.87313886415075      -2.68407371263772       2.34564872060704
F         7.47114451872796      -4.47415190531033       0.98510927164233
C         6.76978633692636      -3.32841448656434       3.36850159900657
C         4.60190520717170      -4.36447308450754       0.62477609053886
C         6.77156969207664      -2.31226772686515       0.31293464708674
C         8.15999845332770      -3.92663716486833       3.67578875603671
C         3.74234119162392      -3.40577262535934      -0.23779832780511
C         8.15930070009865      -1.69788649155724       0.57624366507827
F         5.88134089653540      -3.90349122081036       4.27003111529018
F         6.81681196258741      -1.97490774346247       3.66329063576765
F         3.72670221344053      -4.94563204508078       1.53742438059846
F         5.06778746201504      -5.36481122626650      -0.21491823072654
F         5.86681327261774      -1.26730389246492       0.25079526370442
F         6.83734380857072      -2.90122746965506      -0.93902467591236
F         8.45361339042871      -3.71354339600419       5.01109546777569
F         9.14537993371989      -3.32351250724346       2.92589942743823
F         8.18811144139093      -5.28991131010384       3.44616046559087
F         2.61041228708134      -4.08296127364296      -0.65690081169830
F         3.32691081397818      -2.29881605730548       0.47591134250154
F         4.41194229406087      -2.99349577809672      -1.37117290946089
F         8.22464169851887      -1.09664104704344       1.81428778114820
F         8.39703563906698      -0.72066483563916      -0.37430756520413
F         9.15834021421703      -2.64609984385941       0.45549572781642
