31
C9H20ClN optimized with DFTB in AMS.
N         0.00127454245058       0.22769872582047       0.15065887270021
C        -0.98839779563556       1.17838936693634      -0.45589701586145
C        -0.39546680867844      -1.18544625215271      -0.16808227521784
C         1.33297597979003       0.53230915867046      -0.48865681338212
C        -2.42884336599251       0.89739748688750      -0.03916330253427
C        -1.81396633634398      -1.50092790342974       0.27969724248144
C        -2.81900633956779      -0.54516634902302      -0.35821995575109
C         0.09631366973732       0.44269701850677       1.62201466453007
C         2.51053974751044      -0.29942876261610       0.01631435656577
C         3.78097248943799       0.13868121983440      -0.70962008356792
H        -0.89542768129947       1.08588373598137      -1.54175003093929
H        -0.69334809791636       2.18838172277140      -0.16093492448179
H         0.30706890603284      -1.84334431600075       0.35756598346656
H        -0.29693648443555      -1.30956648733289      -1.24990375555735
H         1.52397178255295       1.59520794247047      -0.31130940173347
H         1.20513557722877       0.38054932066651      -1.56452910462174
H        -3.06875276309000       1.59152744870809      -0.59054175313843
H        -2.56684695603569       1.09661336449819       1.02653751273246
H        -1.88395496933399      -1.45627271805827       1.36914069798063
H        -2.03068090651820      -2.52773852996554      -0.02410148085972
H        -3.82268556388592      -0.74580395498267       0.02330106086426
H        -2.83092051517322      -0.69021654832577      -1.44355439317674
H         0.67106369639058      -0.38173830382698       2.05584450205834
H         0.58082141840696       1.39961835478122       1.80599707361999
H        -0.89972676157517       0.44715383505403       2.05513722716596
H         2.64273189663868      -0.16620256910183       1.09080770311871
H         2.33545018864923      -1.36053954744868      -0.16565091529305
H         3.68170135237544      -0.00676408347195      -1.78625593618799
H         3.99408244532146       1.19124445783134      -0.51743390084046
H         4.62090832845762      -0.45652476565387      -0.35464306392654
Cl        1.37831784260097      -2.44194639972777       2.16665117928686
