43
C13H27NO2 optimized with ForceField in AMS.
N        -0.22768806124356       0.31433144375011      -0.16580911882669
C        -0.91127449426370       1.29102104657292       0.74471559782905
C        -1.13891945603042       0.01818341978077      -1.31921063647260
C         0.12612699471929      -0.93028201612379       0.60353232549077
C         0.99504990181689       0.97325007858929      -0.74191356159925
C        -2.31300649958366       0.84524581388370       1.20807207777782
C        -2.52810948988908      -0.49563256250479      -0.90436725000372
C        -3.21070531991625       0.50672652390790       0.02119786447763
C         0.91514005278164      -2.00385366049733      -0.18582454651796
C         2.12779923038266       1.28829374259350       0.26709889760082
C         1.25046764303465      -3.19586954138712       0.70722851245186
C         3.28114577729392       2.01342780788403      -0.42144876051817
H        -0.31145269408194       1.46894480200358       1.66249697726643
H        -1.02677691861343       2.27853044781987       0.24042812428176
H        -1.30464990201258       0.94281003289024      -1.92099473828692
H        -0.68326795014429      -0.70677797313870      -2.02493556464961
H         0.70623532854443      -0.66473737444224       1.51457566743342
H        -0.78290696123836      -1.42532335558746       0.99640948492562
H         1.42297027029182       0.35155961115483      -1.55992461503936
H         0.71050788594789       1.93177893686848      -1.23558223177353
H        -2.24591733991663      -0.02156762520207       1.89784127130446
H        -2.77977827018158       1.67356595552686       1.78399326753552
H        -3.15143901369721      -0.62286566133337      -1.81573227400816
H        -2.46350947800549      -1.49263564728608      -0.42190082246041
H        -4.16924911511916       0.08159951401757       0.38894831700562
H        -3.44224598107929       1.43595862328975      -0.54484743946189
H         0.31614857170473      -2.38445737855343      -1.03734840572518
H         1.87101186733363      -1.59882534534436      -0.57387102382196
H         1.76286300844639       1.93924877523484       1.08643790177938
H         2.53624303935643       0.35619377846982       0.70792146266631
H         1.78694202402533      -3.96682989097764       0.11443315492935
H         0.32046646828022      -3.64609575297134       1.11433193196714
H         1.90299524199814      -2.87730015291938       1.54800084742415
H         4.08885369311582       2.21190023590638       0.31460225874475
H         2.93378182332986       2.98368005019504      -0.83626080139882
H         3.69458600558531       1.38959812042211      -1.24245979138611
C        -2.15777648476575      -7.79077095118546       1.23357936471016
C        -1.73537295848360      -6.49423383245846       1.84938069558291
O        -2.57633960368788      -5.72241456967558       2.28153410768114
O        -0.55225150649920      -6.20440577893193       1.92321001497879
H        -2.70773418744421      -8.39783159380878       1.98332586525378
H        -2.82164570646808      -7.59254933197196       0.36582519885103
H        -1.27329099752369      -8.36631082876031       0.88484505040069
