45
C11H24F2N2O4S2 optimized with ForceField in AMS.
N        -1.38857866406934       0.18106089106605      -0.08248624157956
C        -1.65579594350939      -1.00884750876664      -0.94829115769042
C        -2.50160716308311       0.19105919161192       0.91543564206257
C        -0.08207267623747       0.01752930155987       0.63385584048494
C        -3.02454534243973      -1.55990155833474      -0.59560371809062
C        -3.22416899187821      -1.13859628910920       0.83245611686584
C        -1.42993079643300       1.42620914455141      -0.91531948841446
C         1.16336191967684       0.02560463422302      -0.28638174839386
C        -1.14765043479708       2.72408413312071      -0.13697151888904
C         2.41796510087617      -0.36571083211866       0.50408518051044
C         3.66902687316300      -0.33822204637130      -0.38006207752592
C         4.90959803778810      -0.71691209675162       0.42385813428773
H        -1.61498458973002      -0.77819921072927      -2.03783886492141
H        -0.92393155737404      -1.83093616671499      -0.77449570822633
H        -2.15655690576394       0.36811594886392       1.96001280869857
H        -3.25639603134201       0.98141729386580       0.69550430093002
H         0.04771786174212       0.81831826529281       1.39598966282136
H        -0.09319234791289      -0.93837049984598       1.20830153599380
H        -3.79918088295253      -1.08888569053786      -1.24045256347938
H        -3.06811080471291      -2.66593556861065      -0.70305136779805
H        -2.74314603660488      -1.87361269959501       1.51533353071660
H        -4.30313305074387      -1.04158939570836       1.08260121849440
H        -2.43077428080048       1.52729330896577      -1.39511349340518
H        -0.70493329117011       1.36328306238722      -1.75646433616229
H         1.31826132724512       1.04208526926487      -0.70484876200231
H         1.03442536432292      -0.68132839322343      -1.13247441459307
H        -1.78409736198889       2.80693455455003       0.76729753514059
H        -0.08128380433810       2.78809874457281       0.16006208778554
H        -1.36389611920784       3.59462984100725      -0.79119325655765
H         2.28668735076671      -1.38989360752483       0.91826011144449
H         2.55135065127272       0.34410143252166       1.35044075474501
H         3.55225006494731      -1.05586482802761      -1.22155937756844
H         3.81098176148592       0.68083887022356      -0.80205360735103
H         5.80470584565251      -0.66341883478787      -0.22658023609209
H         5.04935855210343      -0.01496741199987       1.27347781806690
H         4.81499482180148      -1.75289000270014       0.81359942634850
N         7.42065740355860      -0.78308758147738      -2.33068428283340
S         7.71664938320461      -2.33580317270503      -2.75251242204279
S         8.04306007318463       0.46864182063224      -3.18002922845388
F         9.29469227892695      -2.72905101700009      -2.35430916306751
F         7.24709236793926       0.59541111112035      -4.64748944829802
O         6.77642409362493      -3.24477058959751      -2.01359929651819
O         7.52972019140059      -2.50977769166816      -4.23352387422105
O         9.50560688359956       0.23694614822191      -3.43665078286447
O         7.86109204240637       1.74164575378301      -2.40384464985691
