22
C8H12ClN optimized with ForceField in AMS.
N        -0.48629226304448      -0.04548659355802      -0.42241259293795
C         0.94405656016039      -0.04721987729264      -0.75180747192120
C         1.77870380372885       0.02128661186389       0.53099339930195
C         3.27332420624151       0.02770724927466       0.22314000034731
C        -1.16166817319942       1.14118489428699      -0.33908146543447
C        -1.12726296146435      -1.22757908855476      -0.16947246813488
C        -2.51404009759570       1.16510526838100       0.00971728868474
C        -2.48093328630690      -1.24013782835621       0.17684002650332
C        -3.17540493258782      -0.03466643041236       0.26704218370160
H         1.20395482115179      -0.96506047411259      -1.32558773145981
H         1.18906889613256       0.82013828732820      -1.40538566893438
H         1.54490606138821      -0.85443882228591       1.17451735390897
H         1.52091529282940       0.94585948298490       1.09186478261924
H         3.55968466557237      -0.89800825359067      -0.31998307893224
H         3.84816193632963       0.07441916980066       1.17215470896961
H         3.53617422981068       0.91293820533117      -0.39428907717335
H        -0.65297996955222       2.07780002688990      -0.53319842771909
H        -0.59089466403064      -2.16749084916989      -0.22790751120151
H        -3.04123823974936       2.10742406627829       0.08408242477252
H        -2.98417081317128      -2.17684919182312       0.37874453326736
H        -4.22333956944937      -0.02996715689690       0.53891007662396
Cl       -0.63666067979386       4.11318006013340       1.82657740894827
