51
C13H24F6N2O4S2 optimized with ForceField in AMS.
N        -1.38115361454852       0.17522900418601      -0.06436180596671
C        -1.65851117670350      -1.00878767890110      -0.93525719791484
C        -2.48266575253055       0.17626972088087       0.94659258656090
C        -0.06563292767935       0.00855518335274       0.63610966708794
C        -3.02969358214348      -1.55164806790073      -0.57792853056810
C        -3.20397351478823      -1.15353307875913       0.86020607324182
C        -1.43494649314055       1.42635543329172      -0.88753678950134
C         1.16896882750810       0.01561250873854      -0.29831296898184
C        -1.16312918249300       2.71959358600227      -0.09813610476461
C         2.43758513144848      -0.36063381095033       0.47780218616121
C         3.67317999381107      -0.33625376631908      -0.42946928667123
C         4.93147260847050      -0.71364404127952       0.34744647655422
H        -1.61779355005232      -0.77473129907984      -2.02372462228353
H        -0.93231062560140      -1.83679064342386      -0.76551324971199
H        -2.12617648096784       0.34794083408950       1.98799613427345
H        -3.24197698361900       0.96581724245667       0.74017120825218
H         0.07445450911378       0.80697159580496       1.39825660769464
H        -0.07034653762255      -0.94785399138881       1.20940729154696
H        -3.80653078846112      -1.05797625049470      -1.20328305774533
H        -3.08879114611730      -2.65430801020299      -0.70733745883541
H        -2.70704733477021      -1.89681635806287       1.52251822258363
H        -4.27766877963561      -1.06343616856246       1.13444956413142
H        -2.43739027086820       1.52268015395919      -1.36503268094846
H        -0.71261090977433       1.37693998715568      -1.73153242220852
H         1.31231711820305       1.02895683593013      -0.72849405886643
H         1.03366897643194      -0.70167476982690      -1.13464774533901
H        -1.82277176356997       2.80698109192766       0.78856967134301
H        -0.10399954855798       2.77917254588976       0.22338951311336
H        -1.35908334588605       3.59161699133908      -0.75291954582566
H         2.31836403055010      -1.38071229423924       0.90530916350433
H         2.58261026402035       0.35861969924562       1.31412810731846
H         3.53849380427967      -1.05507640254154      -1.26707129379888
H         3.80591897333878       0.68187770084780      -0.85620779903339
H         5.81120772248102      -0.68311032519347      -0.32941741498937
H         5.09944555399829       0.00191398700107       1.18057090779050
H         4.83627902055470      -1.74076684853995       0.76005949762374
N        -3.34066080333345       6.76721341890759      -1.73350858477187
S        -1.82228495159012       6.43224683848748      -2.25371234453870
S        -4.67699681650873       6.10351826758031      -2.41356067474487
C        -1.32333445781991       7.65968287158264      -3.44307725866135
C        -5.21505107696386       4.72579252811145      -1.42154653318745
O        -0.87755800847437       6.47586841865809      -1.08567545898817
O        -1.76901161690404       5.07300722996063      -2.89381826874417
O        -4.38531710785614       5.63137106551646      -3.81089325110065
O        -5.77457926080914       7.12932079436629      -2.45087781455475
F        -0.02473889666879       7.41222985356270      -3.84625715545141
F        -1.39346906423216       8.91542873818452      -2.87032054369296
F        -2.16065928962293       7.60955642902467      -4.54118195885393
F        -6.33058779130660       4.14771175140938      -1.99726657066730
F        -5.53258820904368       5.16668815606328      -0.15076308934698
F        -4.20358459174483       3.78804040475176      -1.34115950922254
