36
C10H23NO2 optimized with ForceField in AMS.
N        -0.00105979078831      -0.00204908972447      -0.00010984338412
C        -0.85073643754221      -0.25856743362383       1.21513275675535
C        -0.85086228278191       0.25284649867218      -1.21544245738495
C         0.84878729817797      -1.21743285894840      -0.25657483851676
C         0.84779622132737       1.21422669974684       0.25604347391796
C        -1.90441585167923      -1.37491930304112       1.07537632643466
C        -1.90284454637380       1.37111368115681      -1.07960118000859
C         1.90317856511237      -1.07831803212957      -1.37253549183828
C         1.90094663157481       1.07623507622135       1.37322230347332
H        -0.21638167659165      -0.54934195057511       2.07888606197896
H        -1.37571910128820       0.66836877477659       1.53352152890325
H        -0.21648211146280       0.53890082494444      -2.07795408838178
H        -1.37532491638093      -0.67390830033319      -1.53444348710246
H         1.37296336337752      -1.53649628539694       0.67054338131014
H         0.21438716915390      -2.08099106255186      -0.54797328040109
H         1.37270464081545       1.53313540424463      -0.67080893290102
H         0.21279789184095       2.07767206072788       0.54639924985670
H        -2.46070161531526      -1.45947077944305       2.03265695346470
H        -2.64820573046607      -1.15414981643030       0.28547110297543
H        -1.43680949992131      -2.36112189490185       0.88670340214334
H        -2.45667526903594       1.45548995258917      -2.03843831933579
H        -2.64835061474583       1.15150452163008      -0.29100787846376
H        -1.43481793263594       2.35718679748807      -0.89121398275984
H         2.45868771425482      -2.03623457099325      -1.45649180915244
H         1.43682622959882      -0.88964357699389      -2.35939134060311
H         2.64747755249805      -0.28909209960749      -1.15131658562277
H         2.45601840908559       2.03431333842199       1.45807888490142
H         1.43298414196741       0.88757345650399       2.35929208599505
H         2.64575751652997       0.28708947850818       1.15332647084526
C         0.03839553190317       2.01688845111419      -6.01165191710957
C         0.85566089171858       2.63166952047498      -4.92008806513212
O         0.93062633906527       2.08750736235987      -3.83109161955590
O         1.44069521661485       3.68523505466557      -5.11136626509188
H         0.07782207880020       0.90919759177300      -5.94420103997625
H        -1.01558645362650       2.34987688743314      -5.91607000517737
H         0.42804971351880       2.32524457764136      -7.00475125605570
