29
C9H17ClN2 optimized with ADF in AMS.
N         0.12112086222706      -1.54455282226845       0.18941677147275
N        -1.81591518860357      -0.59929719504555       0.27905730479417
C         1.54172771828877      -1.79700225998967       0.46363659828632
C         2.44103889337476      -0.92834829182799      -0.41298715255779
C         2.21055842511919       0.56650913978634      -0.20248839513852
C        -0.62659369935338      -0.68392129829215       0.90016515919554
C        -0.59550274971043      -2.00797465627142      -0.89746109438648
C        -1.82259013372545      -1.41215070138460      -0.83784244425159
C        -2.88085336918418       0.32898331880618       0.69630043827759
C         3.21710808345087       1.42689187265546      -0.95906405162116
C        -2.46215157601918       1.77362108631332       0.47594259827892
H         1.69523650427509      -1.55818381887755       1.52709596916090
H         1.72493115756517      -2.87122889810189       0.31050451395058
H         2.29958729328197      -1.19730511620814      -1.47658573261496
H         3.48429062978195      -1.18913833751967      -0.15863585910672
H         1.18947837258773       0.83148018151167      -0.52818196436130
H         2.23573450809541       0.80134322875223       0.87655321469620
H        -0.26802057077334      -0.00509468964515       1.77025578958195
H        -0.18589696043245      -2.72014879336679      -1.60294552661359
H        -3.77628740657752       0.05785168999582       0.11841106921837
H        -3.08334287173400       0.13625184133288       1.76022445439781
H        -2.69008613194745      -1.50969763074683      -1.47882009587104
H         3.15329249038740       1.26263097151269      -2.04715608663232
H         4.24830101846244       1.19986712251739      -0.64416671414748
H         3.03634911638142       2.49442140873107      -0.76505100752661
H        -1.58725272314328       2.00978368879138       1.10744771105810
H        -3.28824948606307       2.44225317990072       0.76088077588371
H        -2.21599211483454       1.94913395697384      -0.58245832450199
Cl        0.33811175282258       1.36920663906485       2.88245237807863
