55
C15H29F2N3O4S2 optimized with ForceField in AMS.
N         3.07379138172005       0.91543297517631       0.01427028216037
N         2.91007830406410      -1.29655660208278       0.18557755344506
C         1.47484361245026       2.77822849710419      -0.24407996029654
C         2.83905788907993       2.32921167066266       0.30178782146727
C         0.99736899724758      -2.62699511538956       1.01341206491481
C         2.49919933823733      -2.60704710710740       0.68796081836171
C         0.31058755901644       2.09956971915779       0.49461081862414
C         0.13386662107603      -2.31844661312457      -0.21984598141737
C        -1.04464325366131       2.54627351986538      -0.06316828908741
C        -1.35667664216920      -2.30065849300164       0.13836690931175
C         2.82048138543005      -0.12055800088887       0.83771842704174
C         3.34794898190559       0.37633800968663      -1.19109005547675
C         3.25399111936921      -0.99564102378421      -1.08305524941741
C        -2.19227855938405       1.87189732760874       0.69939053707024
C        -2.19832208572830      -1.80727376192644      -1.04580440039672
C        -3.54281782022382       2.18736399059450       0.06552104846665
C        -3.67915843623761      -1.73942599640080      -0.68485374609681
H         1.39120344996828       3.88032197927185      -0.12377786751443
H         1.41856331318045       2.54811489936145      -1.33066098740406
H         0.78589470309348      -1.88215917581942       1.81085527167427
H         0.73182226016698      -3.63176794416143       1.40813532770814
H         3.64245595570735       2.93602902267874      -0.16880396768565
H         2.88376320819878       2.50840643857953       1.39860800647815
H         3.07870965728248      -2.84257725465669       1.60618722118413
H         2.72358572753148      -3.39331805029040      -0.06601091469296
H         0.36601947705088       2.34783046681765       1.57740647624149
H         0.38795531018798       0.99758292316385       0.38106589572635
H         0.31752304884033      -3.08528560468357      -1.00427579409617
H         0.41471917870335      -1.32454748980490      -0.63010749128922
H        -1.14085355102660       3.65062532992967       0.02955777609615
H        -1.10241457927741       2.27338060548013      -1.14034742180535
H        -1.51930014356163      -1.62641664459860       1.00780591718792
H        -1.67771197687538      -3.32669834216626       0.42419906075327
H         2.48851576553247      -0.01592662701058       1.86336868735528
H         3.53743780387367       0.94016183310622      -2.09521298184056
H         3.35354491238863      -1.71331450938631      -1.88700298688454
H        -2.04982188558362       0.77082354086304       0.69948374979856
H        -2.19656073205859       2.22244528632233       1.75452393761958
H        -2.06805948920159      -2.49340868657533      -1.91093536241654
H        -1.86117866830933      -0.79162326380805      -1.34912501164514
H        -3.72779650489775       3.28257500725867       0.07585107751293
H        -3.57265163804325       1.81657349653177      -0.98145013692572
H        -4.34764462889287       1.68365301594182       0.64167972893713
H        -4.25310148218378      -1.35093612728949      -1.55260072599705
H        -3.83735435887421      -1.05693525663142       0.17724728066086
H        -4.06079224402257      -2.75051830247856      -0.42827328463389
N        -0.01894204287867      -1.11368964237792       5.67068317486248
S         0.83696616290171      -2.46663689432650       5.33056757622350
S        -0.94813562382608      -1.00869682432701       7.01378816807636
F        -0.18972682496570      -3.62093558934896       4.68613142113970
F         0.03783568669726      -0.89183540877293       8.36160127340305
O         1.90999882425903      -2.14430839000567       4.33017486472316
O         1.45971512562595      -3.01336257796869       6.58447472999053
O        -1.80399601404756      -2.23733169979744       7.14267527836080
O        -1.82046309395623       0.21134171312942       6.92846246484277
