43
C11H24F6NP optimized with DFTB in AMS.
N        -0.13807743077272       0.11692788920779       0.31393065600919
C        -0.22528477606234       0.46066520069767      -1.14659194265937
C        -1.55261148379903       0.28440292824584       0.77451099452458
C         0.30621385550781      -1.30507561719450       0.51630578154377
C        -1.20973220624272       1.62272999831130      -1.22583896372758
C        -2.06045850243777       1.52882858753726       0.05067613640530
C         0.77092335292528       1.10559655554254       0.98924553097649
C         1.67041397688170      -1.65859159281101      -0.08883845842029
C         0.84652944879149       0.99011672609771       2.50261254381903
C         2.86054838499807      -1.52239915727484       0.86855514472318
C         4.17014379952227      -1.81216927467946       0.12636693074738
C         5.37497655943772      -1.62637776640385       1.04576766034518
H         0.76075600928333       0.72332388365245      -1.52254007254720
H        -0.60285998728748      -0.42010661532398      -1.67074489759333
H        -2.10975462307871      -0.60164627161232       0.46065416803261
H        -1.58825002741695       0.36013441433421       1.86030294326167
H         0.28792911450753      -1.50173559718806       1.59105509875655
H        -0.46328502128967      -1.92439072685926       0.04704853858662
H        -0.67131283650690       2.57115031326707      -1.26979042365960
H        -1.82251283905244       1.53495174087360      -2.12424729549529
H        -3.12273770797879       1.42282643427470      -0.17580579997932
H        -1.93245549994939       2.41770065149701       0.67137712884717
H         0.42086444648583       2.10093196772629       0.71483431235174
H         1.75610485164261       0.96973027938911       0.54861021098616
H         1.85527473013175      -1.06131360827189      -0.98174698143684
H         1.60691004690082      -2.70355834882825      -0.41003460688452
H        -0.09105257780157       1.26953271383973       2.98231359891768
H         1.12751068374973      -0.00927775100200       2.82861894520151
H         1.61792208853411       1.68471412093869       2.83426418377563
H         2.73785235031450      -2.21743636875548       1.70694158634159
H         2.91462341693017      -0.51146034928585       1.27736130585707
H         4.15481178739786      -2.83603833690547      -0.26238021976014
H         4.25480480102502      -1.12749137511632      -0.72263198162866
H         6.29352579191784      -1.83399540780933       0.49727565819344
H         5.41492564033765      -0.60068777562247       1.41362835631862
H         5.31792368455070      -2.30374732707424       1.89966425490907
P         3.31756631480207       2.29888452014628      -1.47359378158971
F         3.53124538068933       1.91971346956956       0.13629408914548
F         2.77696715612642       0.71519735955519      -1.71144512285705
F         1.71730466698318       2.71227258937433      -1.11268786733694
F         3.02337386674929       2.61761328432109      -3.04446554650385
F         3.77925874500288       3.82915110922319      -1.18838367190525
F         4.83771057624950       1.82383246929595      -1.79771918169175
