24
C6H15NO2 optimized with DFTB in AMS.
N         0.16540718078700      -0.23926839225898       0.22831330864695
C        -1.03476622009342      -1.08464349808927       0.46416229614148
C         0.44219489557598       0.54768811924668       1.46314632468533
C        -0.06743093899909       0.68535095292369      -0.90755596129546
C         1.31988696791857      -1.12895850205574      -0.08167769397113
H        -0.80410716156097      -1.74235776515944       1.30562684719097
H        -1.88192842061577      -0.44356499736837       0.70143046138927
H        -1.24251022125669      -1.66847357041225      -0.43082830884201
H         1.42421463852991       1.00542009121058       1.37992530010401
H        -0.33376095479540       1.30243170523956       1.58265144798478
H         0.44037620996799      -0.14726133124068       2.30049647166277
H         0.82802908713059       1.28587881566367      -1.05751462476407
H        -0.27954977047083       0.10526127007477      -1.80417748789940
H        -0.91289175699313       1.33130782007441      -0.67657631476177
H         2.23576134412372      -0.54479741355941      -0.05354675689713
H         1.35902061466391      -1.89508991560299       0.69101430650670
H         1.16910187423094      -1.57499368377080      -1.06371508689227
C         2.54185021355689      -2.63159535792262       4.18685843382784
C         1.91607541927499      -1.86909663788514       2.99884694188008
O         0.74139968302484      -2.19588847625072       2.68645346573895
O         2.61055322360458      -0.99740155304267       2.44061806742924
H         1.89457460708855      -2.53137046942649       5.05695430102900
H         2.61239382390787      -3.68761551857898       3.92889250652265
H         3.53159724319894      -2.23954426110883       4.41106947248323
