30
C8H15BF4N2 optimized with ADF in AMS.
N        -1.09900146657886      -0.72457114141322       0.55554881511725
N         1.06231992625081      -0.78761332412799       0.33805047129652
C        -2.45388684079744      -0.31400182193044       0.97459833967612
C        -3.09325979026414       0.58895116954562      -0.07278571017002
C         0.04902962207260      -0.19834057110640       0.99560083072464
C        -0.82825465579564      -1.66437333162932      -0.41647859297499
C         2.47509863014355      -0.41198238840816       0.44190844166990
C         0.53120562180322      -1.69967441262100      -0.55403772251723
C        -2.37900583204969       1.92257193930907      -0.24774015835553
C         2.84371797499963       0.64246564567752      -0.59040906391398
H        -2.34007654547507       0.19578437556859       1.94456421048361
H        -3.03484405265340      -1.23936381482803       1.10417822623749
H        -3.15220841464262       0.02656701269444      -1.01849643906781
H        -4.13879206587729       0.73283303130574       0.24290460378846
H         0.14876542226722       0.56693858707462       1.75425034280638
H        -1.64310342073938      -2.20438656523650      -0.90447041337749
H         2.64557075976455      -0.05530436886171       1.46821638332486
H         3.06389327935806      -1.33247918542347       0.31343942276268
H         1.16246753659793      -2.30844241807574      -1.19047507777826
H        -1.33441459102800       1.78749239721971      -0.57664769817065
H        -2.37208367368197       2.50420533705585       0.68959336106639
H        -2.88050938960768       2.53400323872370      -1.01302094488824
H         2.65792158905182       0.27358982987141      -1.60981041986858
H         3.90928868658929       0.89956881453793      -0.50181167386263
H         2.25099806583361       1.55739522009777      -0.44044174349882
B        -4.20606485366123      -2.79988479849378      -0.67800158832903
F        -4.97585896635977      -3.84452299354994      -1.18654973883484
F        -5.00289644086904      -1.79927120998377      -0.05896812050275
F        -3.43070545650466      -2.18038749107159      -1.73922163519487
F        -3.25035368724637      -3.28136188872090       0.29113106715140
