51
C15H29BF4N2 optimized with ADF in AMS.
N         1.91309384916390       0.50063684898202       0.49910499999717
N         2.18388141626798      -1.64289817193259       0.32400350270391
C         0.41585497747198       2.47312050323278       0.51978891252374
C         1.68006018103808       1.83316997486910       1.08294293597556
C         0.83241046752841      -3.71912290669032       0.68833202930825
C         2.21358526531036      -3.07109643223055       0.68184151227170
C        -0.83154402875095       1.65829963389631       0.83794291601037
C         0.06868117951461      -3.64392430736123      -0.64136238346868
C        -2.11837284781964       2.28571832667678       0.31700235160073
C        -0.82761566191639      -2.41084235968051      -0.78096820641919
C         1.96675172600687      -0.64403659681228       1.19117026043212
C         2.08635884860762       0.22660663630948      -0.84335935761264
C         2.25968970943638      -1.12240784980308      -0.95240200034479
C        -3.34439368932602       1.46555589960012       0.71390807354981
C        -1.53548779148025      -2.34120212699310      -2.13078719324639
C        -4.65125088575997       2.04741144080415       0.18578545678639
C        -2.43992525580355      -1.11700668444548      -2.25437903497317
H         0.34162696306422       3.48123354312097       0.96657798440678
H         0.51813934079130       2.62846222219540      -0.57083027297638
H         0.23996037018004      -3.26331836961056       1.49721264695996
H         1.00844854328154      -4.77195670747530       0.96979802789808
H         2.57830533659872       2.43955731804837       0.88288043923444
H         1.57637066824191       1.67276628569068       2.16550181953406
H         2.66889638314380      -3.13762566028385       1.68071550338018
H         2.88611739305024      -3.55346439191756      -0.04446677074285
H        -0.89654535168093       1.51112753049333       1.92916667661691
H        -0.73264690641071       0.64111183639359       0.42323006285659
H        -0.56940050533332      -4.54109319609192      -0.73056541463551
H         0.77382778987727      -3.70139096234273      -1.49524891343144
H        -2.22116231390758       3.31553517995594       0.71154408625358
H        -2.07435375174781       2.37732015068162      -0.78648881042936
H        -0.24750782634337      -1.48514515053495      -0.63387312670192
H        -1.56734411757023      -2.41705585224992       0.03867738101296
H         1.82222973278740      -0.76074678450064       2.26372249650090
H         2.06450372288079       1.00417180858116      -1.59615081849930
H         2.41264098195741      -1.75214656910093      -1.81956471559487
H        -3.21442753720935       0.43349318864846       0.34596711795568
H        -3.37987177871986       1.38866510077501       1.81535762562846
H        -2.13141539170723      -3.26125524077488      -2.27902137105257
H        -0.78164461943336      -2.33073638366257      -2.94176603884085
H        -4.80639605816526       3.07281391844124       0.55914489309871
H        -4.64888380789094       2.08955786156923      -0.91589112939672
H        -5.51521590841309       1.44170806817540       0.49871614682229
H        -2.93564946400311      -1.07400038728107      -3.23632329250413
H        -1.86340942464279      -0.18669300181674      -2.12302927142377
H        -3.22236653514522      -1.12946137738077      -1.47942560800759
B        -0.16076688940723      -1.08260850665961       3.52513926370533
F         0.41734675761762       0.23547341687990       3.61849233256151
F        -1.10099750520127      -1.29577125878123       4.52581466995144
F         0.93210851138363      -2.02158768296158       3.60762367643777
F        -0.74032890491265      -1.21971550034509       2.22462817862674
