63
C17H32F6N2O4S2 optimized with ForceField in AMS.
N        -1.08501688058365       0.82930909135905      -0.17714627067490
C        -1.57585161221256       1.86817139767199       0.78576669576450
C        -2.05652335163843       0.73678730310271      -1.31495172406754
C         0.21592963670690       1.29500753046310      -0.76908356411553
C        -0.93065001239538      -0.48322065644399       0.54132562221632
C        -3.02059240486544       1.63292964018791       1.27617127781013
C        -3.50298083900929       0.44366513293620      -0.88420044815035
C        -3.98911663850503       1.49974352031196       0.10373428680892
C         1.42089414319368       1.36266788780203       0.20140772447936
C        -0.34728255645167      -1.64444128861318      -0.29806642966885
C         2.66611396858572       1.87776729713311      -0.53267863056635
C        -0.22627253212676      -2.91402057002382       0.55460362118913
C         3.88552783306669       1.92104794389673       0.39474586933999
C         0.35651398553212      -4.07255972532250      -0.26187462506807
C         5.11621677547528       2.43601061384306      -0.34724409173118
C         0.47178827720210      -5.33737908836421       0.58331547442454
H        -1.54394014637000       2.87915483630901       0.31790506136915
H        -0.92846434202649       1.91226757963638       1.68676325198095
H        -1.74220419425340      -0.02353302972667      -2.05949242543636
H        -2.07689492390387       1.70089680208677      -1.87602515013449
H         0.08676489099624       2.31146101495178      -1.20888650849401
H         0.50210972924685       0.64720063885684      -1.62775991581559
H        -1.90296504948825      -0.83488582161687       0.93558146525473
H        -0.29917324061296      -0.34971511519491       1.44731898844167
H        -3.33399490683738       2.49570343136693       1.90231557811071
H        -3.08125713014815       0.73521712094125       1.92589657168146
H        -3.59584296342081      -0.57274320961583      -0.44969182207026
H        -4.15637022319886       0.46736120661040      -1.78307737881266
H        -4.07698184798475       2.47962089380386      -0.41534482791112
H        -4.99640244873036       1.21974092657250       0.48086563968502
H         1.20292242687438       2.05030984700689       1.04182074433199
H         1.65459053009477       0.35827977353709       0.60992832028018
H        -1.01097773434241      -1.87179095237972      -1.15644359555327
H         0.66044782675607      -1.38735134800202      -0.68216268106233
H         2.46612531611382       2.90033896649480      -0.92245582753915
H         2.88798116855401       1.21023460731114      -1.39474996230542
H         0.43243677273814      -2.71188497383015       1.42815259486038
H        -1.23279031922524      -3.20174970960198       0.93186505305312
H         4.09941206024692       0.90095309912657       0.78205504340507
H         3.67774730286726       2.58952895868475       1.25858504708485
H         1.36621220496508      -3.79605807709571      -0.63628520721089
H        -0.29819705195074      -4.28198213971551      -1.13586852013388
H         5.98670694764173       2.45638855926839       0.34139237918033
H         5.35675552358912       1.77081705284044      -1.20410752382506
H         4.93670764473637       3.46557049362285      -0.72418275594064
H         0.89889642566435      -6.15732718513524      -0.03141996482553
H         1.13926885513980      -5.16031423980074       1.45344507968158
H        -0.52991771530126      -5.65066052810831       0.94738357063822
N         1.25665932477874       2.54959322422619       6.21535469828801
S         0.94091637556723       1.56746823592407       4.94208631543593
S         2.11978656061411       3.93605292265723       6.07379996594760
C         2.20334386888970       0.31601853307477       4.83877528436033
C         0.99821089822360       5.31505916635769       5.97117127761899
O        -0.38867328557988       0.90037136989130       5.15185483288455
O         0.91221849175739       2.35597294944753       3.66297149213884
O         2.98668925108377       3.90390053997773       4.84512912132955
O         2.98182419791227       4.10431279151934       7.29249178541275
F         1.92711066851927      -0.53261962330001       3.78355019200733
F         2.23121790889736      -0.40913030112939       6.01497519584040
F         3.43503068038004       0.90922884970484       4.63837213963795
F         1.71873663302520       6.48634114286487       5.83506508071562
F         0.23593587587699       5.37793751163155       7.12214392504737
F         0.16599508954995       5.15992110200714       4.87904633507589
