36
C10H17F3N2O3S optimized with ADF in AMS.
N         0.94313067864755      -0.97104092740123       1.69816851730193
N        -0.39793841552600      -1.15045430768256      -0.00347926512940
C         1.72727024233325      -0.40123360324876       2.80690148269764
C         2.94464800501346       0.36984336141237       2.30427165183668
C         2.60319224491315       1.74064011823265       1.72502450939343
C         0.00065825037671      -0.33776583271390       0.98530072932353
C         1.17764496418070      -2.20111333858092       1.12369593645365
C         0.33661130343471      -2.31349759845961       0.05550106516513
C        -1.34426139523008      -0.79483582584320      -1.07459926910572
C         3.83292707580487       2.41135388954408       1.11874234751630
C        -0.63335499383118      -0.21855027613286      -2.28712043133655
H         1.05054291447022       0.23942757577197       3.39529460615604
H         2.01839695664385      -1.25198064032761       3.44085846490766
H         3.45950658124949      -0.24112368602287       1.54103416171462
H         3.63412598246592       0.48645096778544       3.16027493177362
H         1.85983300861745       1.61767065533622       0.92060872091695
H         2.15886949920908       2.37573334536559       2.51604486532456
H        -0.36164013293185       0.66482536304389       1.16632267499350
H         1.95874971138229      -2.86023286368607       1.47997115936577
H        -1.89221147710126      -1.71727370240199      -1.32216753464127
H        -2.06639834595187      -0.08712938057403      -0.63893480980345
H         0.25377137199145      -3.08638554769677      -0.69749977242153
H         4.20448924576901       1.80733329748134       0.27800447087081
H         4.64116416776652       2.51198067423674       1.86092394830971
H         3.59279989704117       3.41484916011664       0.73603947736939
H        -0.08419883255432       0.69410805956982      -2.01929825624151
H        -1.37805151615581       0.00872866498173      -3.06469276195184
H         0.11088164182762      -0.92819971786926      -2.67838972206613
S         2.97046298078635      -0.98993377769049      -1.43193029440297
O         2.22083684741690       0.21790412963277      -1.02106772085068
O         2.22255468500856      -1.91882553845925      -2.30090237607255
O         3.75079045407393      -1.62370346188993      -0.35058211279148
C         4.29903265945138      -0.29765159773952      -2.56614361984264
F         5.09103627923391       0.59206839058999      -1.90193307939559
F         3.74496549412993       0.35223728192454      -3.62653770387758
F         5.09962333814296      -1.28112415330495      -3.05134594886002
