40
C10H22F6NP optimized with DFTB in AMS.
N         0.48434527577105       0.07505820160950      -0.27025783051155
C        -0.43839184841979       0.41886755109503      -1.40054760223386
C        -0.22257224430386      -0.86190783018322       0.66317596710064
C         1.67726215241648      -0.63254391387503      -0.88525127646161
C        -1.75556729367816       1.01872878902271      -0.92679105148607
C        -1.57832837381497      -0.35116518196065       1.14383059326812
C         0.94875571282401       1.29971299529506       0.48746011695042
C        -2.48548951474350       0.02716200037486      -0.02439381758487
C         2.55656525766040      -1.41772049758818       0.08605450809264
C         1.25218580653530       2.50952586139299      -0.38015361584937
C         3.70958040861252      -2.04502822454611      -0.69721794277710
H        -0.63886170532133      -0.51081725110663      -1.94054167868080
H         0.09294014815885       1.09881979353663      -2.06723276665886
H         0.43122024661701      -1.02350857095051       1.52155965825029
H        -0.35132928919896      -1.80648538959700       0.12744648389253
H         2.27304962173779       0.13392351177728      -1.38442278742071
H         1.27959542757286      -1.31671320989538      -1.63979849367672
H        -2.35871010042181       1.23669367431969      -1.81171745075529
H        -1.58840384808076       1.95778600400889      -0.39451623119829
H        -1.45181326164346       0.50775446011717       1.80804354730202
H        -2.03593867738274      -1.15407952340134       1.72785583590320
H         0.17516907131896       1.55258988009428       1.21447210905585
H         1.84725981322457       0.99997196149932       1.02824171726556
H        -3.40721786832887       0.47415688691377       0.35477264375362
H        -2.74915391392923      -0.86843397616419      -0.59610380812042
H         2.96224011113557      -0.75896602462655       0.85590112478038
H         1.98450932525127      -2.21375445341357       0.57235026401107
H         1.80578855425245       3.21859592723664       0.23417997629370
H         1.88202176713522       2.25279017818377      -1.22729188058649
H         0.34407702877737       2.99461960980100      -0.73551698178592
H         4.32923124240003      -2.63114822766337      -0.01970508255772
H         3.32936596873098      -2.70083930450081      -1.48187320128061
H         4.32534248806561      -1.27078055539075      -1.15030432504854
P         4.85301278363859       1.92425852546497      -0.92483353313556
F         5.62067520774713       0.47628114346897      -1.06192015419217
F         3.85501439987710       1.24847917644740       0.26387682756187
F         5.89628906881800       2.40316527189545       0.22862329735277
F         4.00536635627799       3.33321664537253      -0.77842043033391
F         5.76326607981704       2.56032647749355      -2.11071358951746
F         3.72507107249329       1.40221070194182      -2.06304986898080
