42
C12H28ClN optimized with DFTB in AMS.
N         0.14536878727237       0.01780517713030      -0.01699082279341
C        -0.69389175873070       0.58290985633702       1.09276176131568
C        -0.70651475018968      -0.60461252386910      -1.08569865395257
C         1.07683611206745      -1.02435207566176       0.57250879821263
C         0.97586379672464       1.11955629718920      -0.65283498735982
C        -1.72159745357973      -0.37034961591620       1.70568514841148
C        -1.84908459761492       0.26441521110363      -1.61509668430583
C         1.66178460912327      -2.02501032217215      -0.42231334856883
C         1.49602352286983       2.19472799149378       0.29969002248753
C        -2.47013635320393       0.35908369581438       2.82199541068423
C        -2.52006300474134      -0.45427248960552      -2.78625955128089
C         2.67450496187716      -2.90842447020364       0.30703943997789
C         2.41523222961274       3.13546500968251      -0.48036265882818
H        -1.20209072929866       1.46635163850012       0.69940128305439
H         0.00067076574783       0.89932942744338       1.87338274000285
H        -1.11095102124193      -1.53571812540653      -0.68205321907194
H        -0.03446872715170      -0.84709265105457      -1.91137213211546
H         0.52116530496950      -1.56954426847453       1.33704531008608
H         1.89458589136349      -0.47323017407640       1.04370652359467
H         0.36145735300139       1.59046214909210      -1.42199199712597
H         1.82756973007556       0.62686048820512      -1.12765782937579
H        -2.44167837919822      -0.70997668843593       0.95831247494924
H        -1.23220624496766      -1.25217862583043       2.12532368157178
H        -2.59425218933334       0.44758636090799      -0.83787032265118
H        -1.47739230772179       1.23258921185111      -1.95823186309440
H         0.87316085536909      -2.65479033519589      -0.84572471673263
H         2.17084434973133      -1.50023482739088      -1.23232202864445
H         0.66805124022908       2.77081764396624       0.72399148466013
H         2.06907132696121       1.73973382098868       1.11004352088512
H        -3.20268223548996      -0.31111336406495       3.26998570452196
H        -1.77733879743099       0.68647213702788       3.59738248242079
H        -2.99124049999964       1.23204153383700       2.42790424112795
H        -3.34327689481605       0.15085517764136      -3.16395215823311
H        -1.80752626416696      -0.61711068433208      -3.59505128739320
H        -2.91433503933028      -1.41986638380486      -2.46839373750141
H         3.05339891968692      -3.66600853728644      -0.37804293279333
H         3.51030177642411      -2.30278047780265       0.65412242707137
H         2.21096424608102      -3.40616921593774       1.16038705229684
H         2.75955787517864       3.93184759324427       0.17828379958802
H         3.28075296474096       2.58414173856513      -0.84527382399976
H         1.88941892849281       3.58108473312487      -1.32627374505869
Cl        3.96053130930702       0.17957679757616      -0.01587089963975
