49
C15H31NO2 optimized with ForceField in AMS.
N        -0.69769749858545       0.52704626055868      -0.21114090553558
C        -1.67083661023037       0.26926186740868      -1.32270573414421
C        -1.25109186688903       1.60822089776049       0.66930748104373
C         0.56387260982545       1.03343207291364      -0.85509002451581
C        -0.44411292193346      -0.70898509165426       0.61053849961974
C        -3.09174695328100      -0.07656177873771      -0.84626371698589
C        -2.67353661841228       1.32537091833555       1.19325437931681
C        -3.63827901526009       1.03091338320121       0.04887455565330
C         1.75153408048842       1.29306768135537       0.10491284670967
C         0.22738241944547      -1.88702089719472      -0.13700421924073
C         2.96371993961531       1.83380537058836      -0.66330635025182
C         0.45604618222370      -3.07006437730337       0.81252383217509
C         4.14509830157523       2.07261848935953       0.27217932378150
C         1.11807736159928      -4.23933733186817       0.08918736179111
H        -1.31492956290039      -0.53375109649774      -2.00063448987546
H        -1.76055027595748       1.17412587770310      -1.96865686419255
H        -1.28502958418572       2.57832126777144       0.12133519358690
H        -0.60695030760462       1.76681876825673       1.56054572508738
H         0.35718214262983       1.98778357746042      -1.39331026617735
H         0.90364504026828       0.33144825285832      -1.64896493068401
H        -1.38609484877292      -1.09868675304569       1.04239716078186
H         0.17652786884874      -0.45743490120101       1.49828602436002
H        -3.11405452675609      -1.05204110342314      -0.31864921157504
H        -3.75387571889972      -0.17799579155081      -1.73327066499849
H        -3.03686816815928       2.21887767537782       1.74560674753454
H        -2.67042612962962       0.48416864292358       1.91708283650490
H        -3.79095549393298       1.95390706127523      -0.55298415387467
H        -4.62267362310419       0.72298570918951       0.46244471070597
H         2.05875315388874       0.35414597582838       0.60887958290477
H         1.47249122118454       2.03943437927673       0.87581320957275
H         1.21146110440321      -1.58445820626427      -0.54837578485251
H        -0.41866727620028      -2.23591389619433      -0.96765291696491
H         2.69827100267668       2.79330549403413      -1.15834003334514
H         3.26838729923326       1.10537221254447      -1.44607499266243
H        -0.51677877518559      -3.41131123187796       1.22905871361047
H         1.10870747125404      -2.75442258539424       1.65549079390442
H         4.43565623745526       1.12449461613587       0.77224842741344
H         3.88086662398716       2.82627592679791       1.04408073563631
H         5.01159312880798       2.44927777728090      -0.31094781388860
H         2.11089208087178      -3.93578329616629      -0.30589302896476
H         0.47884121338455      -4.58565677719841      -0.75075548589469
H         1.26025937999851      -5.08203750850784       0.79790769835408
C         7.10398356153378      -0.08365495682237      -0.38820022217924
C         7.03914467232783      -1.51316787366307       0.04752579508390
O         5.99028429030670      -1.97512813066741       0.46728203304067
O         8.03166922444771      -2.22092624777643      -0.01314594351166
H         6.37603188795922       0.09030991175037      -1.20864168589507
H         6.85642029331448       0.57666330745537       0.46859601520585
H         8.12266381682540       0.17126337010746      -0.75083578526858
