39
C9H16F6N2O4S2 optimized with DFTB in AMS.
N         1.21714337677540       1.01050911179513      -0.41637661637375
C         1.03613158272959       1.46500402084904      -1.83589821469689
C         0.13681679619874       0.04110879242604      -0.05070980642572
C        -0.33774777539497       2.06190821129189      -2.09240786573087
C        -1.25953897868819       0.61364919868169      -0.27415187124415
C        -1.43776912995711       1.07059993263201      -1.72262515611191
C         1.23773126405988       2.16926230193885       0.51812542595087
C         2.53505263021631       0.32170835638200      -0.32007516818646
H         1.19868771011973       0.59148379441692      -2.47245823064028
H         1.81253960180246       2.20201518107562      -2.03634091290281
H         0.28260312644831      -0.23536758712455       0.99655239106174
H         0.28112352282084      -0.84572499442465      -0.67438318851417
H        -0.38542742300967       2.30836181830684      -3.15551833974192
H        -0.45915335692911       2.99416308997653      -1.53636655793714
H        -1.44242103868138       1.44705828575797       0.40936943636814
H        -1.97944055118064      -0.17431036298625      -0.03765889159742
H        -2.41763461629904       1.53899528595576      -1.83874405530286
H        -1.39355788838808       0.20184055350635      -2.38748267103173
H         0.30875574744929       2.72584469832599       0.44119501801929
H         1.36727194057504       1.79795457795812       1.53312932817133
H         2.06987268248946       2.81298962841057       0.24324265656229
H         2.53510067680095      -0.54155154796678      -0.98247064377676
H         3.31184308638636       1.02162296575025      -0.62327091020215
H         2.69552502771373       0.00400646365717       0.70851167410951
N         4.08547466562385       4.79622535477766      -3.07069986399556
S         2.50503927126287       5.05053544192856      -3.20621561960178
S         4.55834825550301       3.54996335394402      -2.20307462675105
C         1.91460396884856       5.69541307169727      -1.53535240229859
C         4.61472213626461       2.02236340125597      -3.29547005941342
O         2.32637413980605       6.15275622562822      -4.10484961449252
O         1.69325515208084       3.86405389687368      -3.41264682989526
O         3.63512034729646       3.12690111413369      -1.14829775739079
O         5.93303182952527       3.74242208864525      -1.84084030153004
F         1.13612238129201       6.74827761706236      -1.70835655340799
F         2.92329817738636       6.02884970359988      -0.75247709587750
F         1.19609237273119       4.74989577485372      -0.91462084724775
F         5.08439469913935       1.01777666548806      -2.55484996928351
F         5.39606550535900       2.18768032312441      -4.34314229171283
F         3.40133287292270       1.66891570429461      -3.71306718102757
