76
C22H34F18NP optimized with ForceField in AMS.
N        -0.00383929250464       1.97455675552311      -0.02658077359916
C        -0.70264049009115       2.88156611582945      -0.98903544082810
C         0.67903363495516       2.88965406777845       0.93898387460901
C        -1.00304869113381       1.13217977258394       0.70869330377592
C         1.00929987619962       1.15135691280832      -0.76481397448463
C        -0.22075878543729       4.29822978004592      -0.74154798050544
C         0.15297565759899       4.29372458837259       0.71350304267473
C        -1.75819356992980       0.11247367682264      -0.17752467661838
C         1.78852346815129       0.14871344798293       0.11972724919628
C        -2.87579341909508      -0.57753556465461       0.61424883218942
C         2.90421739184778      -0.53432728014888      -0.68105989000100
C        -3.60945256485688      -1.60843637266172      -0.25207198314230
C         3.67313746051115      -1.53468664069218       0.19035641939292
C        -4.70951448569784      -2.31601178298679       0.54706866769471
C         4.76215879148947      -2.24657494692876      -0.61940153115473
C        -5.44582121898882      -3.33763824543528      -0.31464187784067
C         5.54121219530064      -3.22915577315646       0.24990960382640
H        -0.53510554045194       2.60679823701328      -2.05557164163033
H        -1.80679571769851       2.88686252570173      -0.83765742330191
H         0.53228164437694       2.59715809311405       2.00391012790197
H         1.78059913370128       2.92947151400608       0.77418996583470
H        -0.51127040245688       0.57627185855131       1.53747149867461
H        -1.75208937778926       1.79311195984752       1.20431095219489
H         0.52524253607833       0.58529237643600      -1.59120260915226
H         1.74355181189022       1.82638156960685      -1.26336314425637
H         0.67914667507913       4.50535898293377      -1.36241786840652
H        -1.00895746288731       5.05137230339255      -0.96002768378461
H        -0.75266678825132       4.46313558511620       1.33744704221304
H         0.91746795896527       5.06768887557419       0.94311777971896
H        -2.20160603445148       0.61603490488470      -1.06190897889252
H        -1.05743868874049      -0.66914588649803      -0.53767094740463
H         2.23704494842915       0.66622512615802       0.99346589883852
H         1.10347254370894      -0.63888689027909       0.49632605674729
H        -2.43646986913276      -1.08723839647483       1.50020855022592
H        -3.60218987290286       0.18629418342219       0.96967021073148
H         3.60979660068636       0.23581202767622      -1.06367272405114
H         2.45842055498104      -1.06799775350992      -1.54963938861428
H        -4.06282932060356      -1.09529682584248      -1.12886198789409
H        -2.88160474634710      -2.36410592382591      -0.62210138524477
H         4.14065323403189      -0.99479834920881       1.04336801399707
H         2.96551656112125      -2.29121793412930       0.59623068289894
H        -5.44135946231157      -1.56781740650151       0.92241440746023
H        -4.26108738784044      -2.83891067231016       1.41994162613601
H         4.29622183722878      -2.80367095978424      -1.46031608399064
H         5.46890690367750      -1.49839801377325      -1.04015897142238
H        -5.92908413520458      -2.83565464085588      -1.17982889130260
H        -6.23155086536261      -3.83703097940873       0.29046727681169
H        -4.73919070231804      -4.11011243869588      -0.68626960474365
H         4.85945691509524      -4.00199008727087       0.66484291092049
H         6.31783008915137      -3.73298593330761      -0.36317383426482
H         6.04008381790773      -2.69345899401773       1.08554800972622
P         3.36492159324398      -3.02258677998925      -6.56220288273607
F         4.25280990741501      -4.48401935111481      -6.33827667897258
F         2.25157271299732      -2.84230620542468      -5.25921919918634
F         4.62722342917587      -3.09071858969558      -7.72928748272466
C         4.46340566703137      -2.47262738461411      -5.06906060113005
C         2.14137134079173      -4.42905080750800      -7.08319271373073
C         2.81862755096311      -1.56612029826800      -7.69012691907303
C         5.96863102363541      -2.29801556870501      -5.36584802104311
C         0.68385555361829      -4.02047358361777      -7.41577977795146
C         3.74779872994691      -0.34126146881821      -7.78035557897052
F         4.36450396497615      -3.42634234676870      -4.06303576554976
F         3.99603300082546      -1.28082961474423      -4.53710961491647
F         2.05260601100331      -5.36720949653218      -6.05909780565636
F         2.65180477819113      -5.06809349345506      -8.20325854692530
F         1.58946048049796      -1.11360840406708      -7.24491556518200
F         2.66250182501567      -2.03465939993023      -8.98430462659894
F         6.62312241553682      -1.98307717625787      -4.18801318788023
F         6.19037346058904      -1.27322483487347      -6.25912444005001
F         6.52606829693215      -3.46089234097952      -5.86496943919413
F        -0.07748854343946      -5.16907785432375      -7.54551505325143
F         0.11596086916750      -3.25245629604451      -6.41717731991755
F         0.60327229002874      -3.34204204136793      -8.61427471303956
F         3.99947173445980       0.19960253081665      -6.53823844510015
F         3.12302473064669       0.63207106495287      -8.54024338971592
F         4.93707150977153      -0.65957084319267      -8.40970918866313
