25
C7H10F6NP optimized with ForceField in AMS.
N         0.16252515814318       0.00341928102962      -0.37719843250948
C         1.60714620911238       0.00679328988044      -0.63609038704963
C        -0.50543537986761       1.18979375559132      -0.24034259504574
C        -0.50111844828489      -1.18584620794523      -0.24307947227310
C         2.37759409733725       0.00363399374367       0.67930804999700
C        -1.87420681444170       1.20468349942363       0.03788057766002
C        -1.86991389660004      -1.20634843780113       0.03505428308366
C        -2.55747775627060      -0.00221289164512       0.17715018964300
H         1.89726856519947      -0.88497943569882      -1.23504690186895
H         1.89475057205916       0.90221313779652      -1.23052870486491
H         0.02013400684952       2.13244956787806      -0.33772814669886
H         0.02773040895385      -2.12647192201815      -0.34271473450631
H         2.11853380557411       0.90310424772991       1.27748271549109
H         3.46869986846147       0.00750088933008       0.47652412388063
H         2.12348217607218      -0.90632813674589       1.26119728743899
H        -2.39801804535289       2.14494597596052       0.14953697147982
H        -2.39051896836926      -2.14870141643927       0.14444530750383
H        -3.61689315028092      -0.00431227009619       0.39824411522694
P         2.35764597143846      -0.47948083810336       5.05716314366266
F         2.41891157865246      -1.59710650866864       3.75534894449544
F         3.65418485655517      -1.32185363943699       5.80561872576775
F         3.48342557377181       0.53906625702585       4.25309370558004
F         2.30448440372531       0.59939038436678       6.39291769764681
F         1.06899649247339       0.36222080246130       4.29389119026511
F         1.22359946318875      -1.49823108901891       5.84886101079421
