21
C5H9BF4N2 optimized with ForceField in AMS.
N         1.11013444660013       0.00646336993870       0.00271344837383
N        -1.11168672956656       0.00918758163663      -0.00229233268946
C        -0.00158060259177      -0.75394347987807      -0.00152018598884
C         0.69096477786308       1.28683469123874       0.00763372077462
C        -0.68961627970594       1.28916237837644       0.00188447706612
C         2.49241904885475      -0.45482274535513       0.00237929699791
C        -2.49444031180703      -0.45094260175832      -0.00151078054396
H        -0.00272748840857      -1.83672649924862      -0.00182342075576
H         1.34055663401040       2.15136300794814       0.02112220292036
H        -1.33597270492500       2.15765060255125       0.00307662082770
H         2.53188251610547      -1.56488968418030      -0.00113554042792
H         3.01271712075161      -0.07458592912517      -0.90156721795975
H         3.01153985405535      -0.07966991639358       0.90893704246716
H        -3.01409848414705      -0.07134261962861       0.90297951679730
H        -3.01370044133186      -0.07561589041972      -0.90789855068773
H        -2.53454959434909      -1.56110743981398       0.00142396578554
B         2.03320045854054       5.48513456963892      -1.36196782317223
F         0.99672453051972       6.39137039208602      -1.71009643840403
F         2.36134926283142       5.64502509977394       0.01082680395664
F         3.18014604260900       5.74821594952930      -2.15703951682293
F         1.59403891099142       4.15564821598340      -1.59382513151456
