46
C12H19F6N3O4S2 optimized with DFTB in AMS.
N         1.48982118178026      -1.27594026674141       1.98128358362178
N         3.15111348727583      -0.09862483725679       1.28019982504636
C        -0.94681018876377      -1.57884167648076       1.88436472859791
C        -1.11630508982772      -0.93238318732076       0.50605457844915
C         0.41373069393791      -2.26004254082246       2.03247181598684
C        -2.49357477770183      -0.27756314547402       0.36475037890769
C        -2.65941811786761       0.37096966265711      -1.01324729761769
C         2.23640563259627      -0.99527964408514       0.91559041644359
C         1.95668267225524      -0.56843454823322       3.05444550963236
C        -4.03195658666278       1.02564249278752      -1.15881612702853
C         3.00785389606301       0.17110853972872       2.61550104843027
C         4.25345308930344       0.34833731383491       0.44472412342912
H        -1.06290376690683      -0.82352423352538       2.66786671132362
H        -1.71753249385095      -2.34031556859287       2.03131572914119
H        -0.99069852446615      -1.69514899866453      -0.26962755826676
H        -0.33675428839498      -0.17599548196783       0.36000612057260
H         0.58270787928266      -2.98359878397596       1.23245075206562
H         0.49013388427526      -2.77412707956827       2.99332305604328
H        -3.27206765533043      -1.03407553844207       0.50949330626083
H        -2.61682311758072       0.48187898529592       1.14467287405749
H        -1.87833301510698       1.12570900790655      -1.15630712216586
H        -2.53454719918636      -0.39046707516785      -1.79036762870577
H         2.12834317540485      -1.41908873467162      -0.06706448949549
H         1.53030029174182      -0.67493273647481       4.03600563008966
H         3.65917048110862       0.85245466247717       3.13386344688131
H        -4.16763567033180       1.80173466127890      -0.40424761855995
H        -4.12614132418162       1.47975129704760      -2.14531750826150
H        -4.82324015030657       0.28428880092976      -1.04033336510970
H         5.13020509084288      -0.25881255294135       0.67532264994027
H         3.98572114672000       0.20384771155939      -0.59958727085859
H         4.45799266290321       1.39863786942762       0.64646654918062
N         3.96659738527838      -2.88839697798264       1.47574484133514
S         3.34364294639777      -3.88515031080141       2.56851335759216
S         4.42865000267937      -3.45431706070105       0.04755724158121
C         4.64479765438924      -5.10553805950764       3.14802727477740
C         2.99968675083355      -4.30374618092748      -0.83104318292274
O         3.06784860366684      -3.06225019455294       3.72710128242913
O         2.25040404659780      -4.68946986160354       2.06224533359467
O         5.47751127692220      -4.43732494260610       0.09731663942141
O         4.62712912777525      -2.26855491942846      -0.76260437401701
F         4.31652840891354      -5.52092870986282       4.35998450274148
F         5.82289553266734      -4.51019917339654       3.20133876867750
F         4.70496387525733      -6.14031338837717       2.33689835982877
F         3.22082001811689      -4.24929339666708      -2.13331485583467
F         1.86816873531384      -3.62890884793137      -0.58009501694087
F         2.84487083486649      -5.55631639677782      -0.47094178789528
