53
C15H17F18N2P optimized with DFTB in AMS.
N         3.16479088389437      -0.57251335488328       1.78928606289578
N         1.56646341584558       0.86810924292992       1.86197699506311
C         4.47283423784072      -1.17816526536177       1.52686388665233
C         0.75518744622852       2.04514919673308       1.57055580776494
C         2.69263562031695       0.54153404281016       1.23412688470902
C         4.91259372430218      -1.02150296282963       0.07448290812790
C        -0.39424722638542       1.68890047466807       0.62580247449102
C         2.32387231949530      -0.95924890855471       2.79721611976979
C         1.31178703801198      -0.05354886731151       2.84040483066930
C         3.94921657085805      -1.68681895771508      -0.90549267459174
C         0.10453902924713       1.24443249051464      -0.74733531556055
H         4.40290363223022      -2.23416271007007       1.80249645195652
H         5.19265358432960      -0.68406443307092       2.18711177224302
H         1.41133355262423       2.79687704836515       1.12670811832583
H         0.37219441107193       2.42466800759139       2.52037043841774
H         3.14855444389681       1.10831158619459       0.44262513399702
H         5.02802552257637       0.03818342178382      -0.16771274849889
H         5.89936917965238      -1.48511399128438      -0.01059982147326
H        -1.00206266403897       0.89780660712295       1.07541631977111
H        -1.02065978012166       2.57839855913609       0.51805217273793
H         2.51488677840589      -1.83201913759783       3.39660480731891
H         0.45273996585539       0.01784700635337       3.48398800658083
H         2.95781238036373      -1.23554415474466      -0.84265019407806
H         3.85888852569456      -2.75245392387342      -0.69068986967591
H         4.31943072104784      -1.56671212740639      -1.92286352103267
H         0.71393563895639       0.34339968511606      -0.66248642723760
H         0.70490719098141       2.02929174526758      -1.20803291228115
H        -0.74351096967692       1.02768815069709      -1.39581770056358
P         5.43685226378708       3.07683913550483       2.60301714026644
F         6.29788516938906       2.27040404279282       3.78822890262180
F         6.07532329818861       4.52388443124530       3.12140958356058
F         4.75438408406435       1.59728821202773       2.05383033412853
C         6.90666355117197       2.68260708811096       1.37599950449088
C         3.95098549132177       3.07470291580773       3.89972388650214
C         4.37863210015763       4.11738534840215       1.22856868162811
C         7.92272723576143       1.57365915898340       1.75756394008301
C         3.89311695528153       4.15794730911585       5.00646208922137
C         5.01501022427609       5.05272913901691       0.16039928859083
F         7.60997485940645       3.78081484606250       1.06987148154037
F         6.33339736504514       2.24312345564208       0.22674591170755
F         3.99059641973896       1.89312612209878       4.54859598238721
F         2.75276502570769       3.07923824858719       3.26354511826600
F         3.58492165356011       4.93894644779612       1.94740264301002
F         3.54308680097475       3.29197929526444       0.53293449131342
F         8.72022487316965       1.30871438264841       0.72005718488892
F         7.28050648034682       0.43591686047518       2.05825512231257
F         8.68720232724638       1.91205565175935       2.78336625742320
F         2.82363561207586       3.94739358479603       5.78439030405218
F         4.97505464894047       4.09590591212228       5.77299887538688
F         3.79500730277500       5.38484902734939       4.51053948062422
F         5.92968303384569       5.85064383511010       0.69422964035947
F         4.05634607737556       5.82326957239845      -0.36701009661974
F         5.56924266598737       4.37636238160171      -0.84026376484465
