62
C16H36F2N2O4S2 optimized with DFTB in AMS.
N         0.45813818662824      -0.21928414616589       0.31891250249234
C         1.12713108978104      -0.99824208938045       1.42088208038704
C        -0.63940627961654       0.60954794899710       0.91894661922054
C        -0.07170505641563      -1.20308852921995      -0.69565174126451
C         1.43741955602477       0.68789518514462      -0.38602312363278
C         1.81566312373237      -0.16552295776968       2.49877691725002
C        -1.49526170535860       1.37798605389330      -0.08586696428368
C        -1.19871052232295      -2.11443058911698      -0.22188721730840
C         2.74528243934030       0.02739701428232      -0.81994679696903
C         2.74491408610843      -1.08689658971721       3.30232618331647
C        -2.57702987545697       2.16367261733011       0.66654816268169
C        -1.50674925893555      -3.11498904710782      -1.34504862746652
C         3.57011685993385       1.03335987920302      -1.63209862282977
C         3.42038509307414      -0.33094829929256       4.44327123276333
C        -3.46077592157765       2.94567075129726      -0.30256450332176
C        -2.59824011795648      -4.09479256603892      -0.92365199980114
C         4.89981887092716       0.41622164580275      -2.06238591893631
H         1.85232709605136      -1.65177895637587       0.93927485060608
H         0.36009140255139      -1.62326659960315       1.88097857273450
H        -0.16616881981754       1.31494814044900       1.60629378472472
H        -1.26896990547054      -0.06665982404487       1.50249357446728
H         0.77559568145520      -1.82215070251123      -0.98686752354882
H        -0.39470160105127      -0.62960157039433      -1.56699891099979
H         1.64466396975342       1.52604958143936       0.28445452452075
H         0.92136068139959       1.07841501642101      -1.26641932955746
H         1.07679395376601       0.28772645933092       3.16705759042063
H         2.41121172175929       0.63795384842881       2.05931082327647
H        -1.97570532465943       0.69219835908435      -0.78748470144092
H        -0.87967119810452       2.07537615984909      -0.65970143645382
H        -2.09979074078442      -1.54236669359327       0.01920920674445
H        -0.89520259772372      -2.67106052070015       0.66740623374737
H         2.55132509759779      -0.85247297508440      -1.43469159688959
H         3.32501710171370      -0.28932383221333       0.04856097493182
H         3.50533728311741      -1.49451347695781       2.62938941892225
H         2.16782463602893      -1.92415397518859       3.70673369510417
H        -2.10157316588463       2.85571956522359       1.36948351651664
H        -3.19404416475602       1.46833730687260       1.24509723856358
H        -0.59389977968007      -3.66550160972530      -1.58947628330314
H        -1.82393013514154      -2.57102594443929      -2.24085693296778
H         3.75554126453196       1.92852300498905      -1.02740643700682
H         3.00317640498668       1.33828383295504      -2.51841767661601
H         2.67648929149878       0.06575386657172       5.13586604696359
H         4.01247918346623       0.49910849537461       4.05532873658377
H         4.08114292494829      -1.00311995140334       4.99003538529244
H        -3.95717665957445       2.26840376761157      -0.99834966246398
H        -2.86454555888485       3.65736449392871      -0.87468846664540
H        -4.22159300294380       3.49480837805208       0.25151495827818
H        -3.52079692153906      -3.56461134605348      -0.68100224383480
H        -2.28250916801681      -4.66360129209057      -0.04839974446675
H        -2.80080097158458      -4.79210531717493      -1.73619370217296
H         4.72556850860779      -0.45754304846958      -2.68905136768299
H         5.47664981262511       0.10870863129847      -1.18900608242274
H         5.47962505945591       1.14650655237229      -2.62675311624371
N         3.06544864614668      -4.70706215536513      -1.40080898793693
S         2.88645037838829      -4.09703262191669       0.04053056057270
S         2.89199918237155      -3.70537520376211      -2.62646740360204
F         1.25702533541153      -3.77966840311599       0.14860714513709
F         4.18077773939997      -2.71879361341716      -2.51841260016700
O         3.09004701127573      -5.11692744150476       1.01004408152278
O         3.45453897167829      -2.79666494252416       0.28174693353868
O         1.78028086590849      -2.79473220600700      -2.54669371939719
O         3.08859378111198      -4.43301173145680      -3.83059441524679
