58
C16H36BF4N optimized with ADF in AMS.
N         0.48314121907199      -0.00741219924999      -0.23364768625164
C         1.11923266983994      -1.06913309585594       0.63783229773444
C        -0.57558753008302       0.73738643188144       0.57176729184742
C        -0.13903475567621      -0.68210940738169      -1.45082276360761
C         1.51934901434634       1.01064532988727      -0.71048963665412
C         1.89262068491478      -0.56267577016654       1.84377402451645
C        -1.45457031211283       1.68238283999989      -0.22822033677317
C        -1.29164844808324      -1.63480417114398      -1.17505722097511
C         2.72568952881156       0.44430441404941      -1.43892785820734
C         2.46684525421620      -1.73882318062505       2.63782690009090
C        -2.43399248778437       2.41394979307028       0.69360953939125
C        -1.94270844325036      -2.00687619387018      -2.51372379818677
C         3.57013560013011       1.60531894441010      -1.98023937045807
C         3.25189657648664      -1.27355682634869       3.86071604490661
C        -3.32103517597104       3.37540526612685      -0.09561288963733
C        -3.14502923785501      -2.92813724587485      -2.33993655449827
C         4.77703956705932       1.11456519782501      -2.77455793081503
H         1.78035870577970      -1.64904267149571      -0.02306100349897
H         0.30184788174105      -1.73001749050599       0.96065047802570
H        -0.02550790450568       1.29357371181329       1.34444925037070
H        -1.17890055014930      -0.03343664801134       1.07561770891273
H         0.68104281092932      -1.21268160115281      -1.95197073987985
H        -0.46082051002978       0.12220959869030      -2.12431757117879
H         1.82833006593264       1.56277251260682       0.18965060884397
H         0.98701550649455       1.69934251155761      -1.38169397036709
H         1.24185788264522       0.02955168079900       2.50817352840231
H         2.72182453880058       0.09008719880547       1.52541289806035
H        -2.02291553774894       1.13871258038927      -0.99749809174996
H        -0.85005871804764       2.42010754789340      -0.77777639415909
H        -2.05930671187136      -1.16195095377272      -0.53968499875362
H        -0.95645338449206      -2.55285814588713      -0.66063414052386
H         2.39940884234240      -0.15270667246040      -2.30391204321901
H         3.34626424462138      -0.19174876592649      -0.78130685575183
H         3.12220565952360      -2.33815870802970       1.98050805385342
H         1.64414834390651      -2.40456278207155       2.95503453269865
H        -1.87480157242065       2.97538013116594       1.46472449142483
H        -3.06469639172982       1.68084438075395       1.23048162229637
H        -1.19181048135809      -2.48764107138715      -3.16500652685089
H        -2.24322576548126      -1.07768879477776      -3.02644442277785
H         3.90497488608819       2.24822364510825      -1.14547795677096
H         2.92493406754685       2.21907801900019      -2.63062859257367
H         2.60908223641959      -0.69603941642655       4.54405383302616
H         4.09570162463364      -0.63002795515276       3.56569320275107
H         3.65745878989893      -2.12913913335822       4.41996531967678
H        -3.90083318578760       2.83499016651773      -0.85987482820952
H        -2.71006562570898       4.12632326797364      -0.61964671364712
H        -4.02617253825697       3.90025049470711       0.56570086549539
H        -3.91852439720766      -2.45117300462985      -1.71650784904192
H        -2.85993046732578      -3.87827408705193      -1.85978523330679
H        -3.59945339096531      -3.16441018801308      -3.31352769584202
H         4.44965123990478       0.53029837809133      -3.64866424147157
H         5.43662688961212       0.47806037402834      -2.16139973273313
H         5.37313858199357       1.96269440119273      -3.14317026345541
B        -0.19878865438209       2.05427869922023      -3.84012935975504
F        -1.43203587938088       1.42303712904479      -3.45345024604534
F        -0.32672182030457       2.69689325010318      -5.06940563730530
F         0.81850902112862       1.04369929083769      -3.88235050266603
F         0.16319260855038       2.99055157867751      -2.80457958212636
