30
C8H20ClN optimized with ADF in AMS.
N         0.06509692696046       0.01104923157510      -0.07082131855078
C        -0.65401216539841      -0.33277536276418       1.23221757188978
C        -0.90851838100171       0.25591240942238      -1.20779450002856
C         0.96907354692620      -1.16594699641688      -0.43799348264646
C         0.88128067507268       1.27724315316663       0.14413304252460
C        -1.60239011399691      -1.50988963762823       1.14132575270178
C        -1.98960358445027       1.28839360773328      -0.94374914735080
C         1.93512584128407      -0.90544884377285      -1.57488880032982
C         1.99099354710343       1.17984438526369       1.17021693995938
H         0.15727265608712      -0.60949178378580       1.94984354065105
H        -1.16543597068647       0.58811095282446       1.54884400018767
H        -0.29900752139630       0.55329471545106      -2.07266344351702
H        -1.35977348609143      -0.72032472990390      -1.43526853623756
H         1.48298134935560      -1.45923913025792       0.51197875193220
H         0.28183259413906      -1.98125641364583      -0.70400572739173
H         1.27766039403949       1.54703188988599      -0.84692023558809
H         0.15638093163782       2.04932115328978       0.43892032404943
H        -2.07262179153500      -1.61192365527099       2.13189193685618
H        -2.40675112147433      -1.39691027870673       0.39832329766403
H        -1.05249863657205      -2.44640036415710       0.96930051396146
H        -2.60758484616725       1.36392021909495      -1.85205693629226
H        -2.65035623140486       0.99676718492844      -0.11585261801176
H        -1.58410855969764       2.28947032726384      -0.74253365399205
H         2.47728828348455      -1.84846496473428      -1.74933321789927
H         1.44593848001090      -0.63233619841775      -2.52257288215628
H         2.69069236628645      -0.14670122365654      -1.32607096658840
H         2.50845917959143       2.15301224276756       1.18106818462468
H         1.62062000510588       0.95900221426134       2.17985489671740
H         2.72002670563617       0.39169214351399       0.94259853885397
Cl        1.83669487375130      -1.85882343812351       2.67006150850720
