48
C14H28F3NO2 optimized with ADF in AMS.
N         0.00762743578702       0.41703835307501       0.01730863563504
C        -0.74951744083675       1.45211531866233       0.83923269398302
C        -0.93757705272728      -0.53585138505912      -0.68823985177781
C         0.89748424072438      -0.38099882238566       0.96626632396307
C         0.84008544024042       1.14228614321144      -1.02898749820064
C        -1.73631607127536       0.88890752630416       1.84782593051208
C        -1.99238588968370       0.10366378645034      -1.57850886860456
C         1.91315454574448      -1.29930268049892       0.30680406286667
C         1.91832831425637       2.06252420745600      -0.48809272083229
C        -2.33777881233389       2.05294012295844       2.63927469850133
C        -2.88843059216517      -0.97777769243362      -2.18322462189092
C         2.68554915592012      -2.03313934177677       1.40656025876376
C         2.74329905902112       2.63040126083119      -1.64103424182724
H        -1.25808774864741       2.10844613645955       0.11625125202810
H         0.01225158153417       2.04350861336328       1.38918209626176
H        -1.41979372299489      -1.12952422629934       0.10232449936360
H        -0.30676100033471      -1.21641306503501      -1.27855344740249
H         0.20662214398355      -0.97433580018557       1.58268453776146
H         1.41380946677659       0.35147741386693       1.62282925147383
H         0.12481479084256       1.71478415831313      -1.63736061244433
H         1.27428460266298       0.35763924937380      -1.66841843566410
H        -2.54041875114605       0.30577012131935       1.36559339697257
H        -1.21472647653030       0.22301238272933       2.55337056576566
H        -2.60997355391074       0.80628552500950      -0.99691361274508
H        -1.52003910818309       0.67730678066449      -2.39134669376669
H         1.43446187616097      -2.03407601515167      -0.36338710366125
H         2.62795079806846      -0.71418962993992      -0.29356636869680
H         1.46874579452359       2.88592433963347       0.08725978801969
H         2.57729768645710       1.53037551485879       0.21378137333840
H        -3.02608865223172       1.68046922908478       3.41178674393624
H        -1.53649823627860       2.63017613153998       3.12505964846132
H        -2.90080805733056       2.73250468815540       1.98020077479338
H        -3.65164161165562      -0.52733947447307      -2.83390691995191
H        -2.30479603324685      -1.68781551991621      -2.78996663749355
H        -3.40878309658572      -1.54911231049338      -1.39874660392425
H         3.45786768553798      -2.68291713673091       0.97038867290519
H         3.17157599053270      -1.30850415676039       2.07697058062477
H         2.01250404012659      -2.66316312635796       2.00968491407020
H         3.51388637822561       3.30685409468510      -1.24419058561495
H         3.25147946169504       1.83296108693376      -2.20762456701189
H         2.12021684327034       3.20545008212419      -2.34505173038378
C         2.27141492996069       2.68667967820697       2.66663172234497
O         2.70243384634051       1.51040209109770       2.58559470262449
O         1.10576190450029       3.14317644633505       2.54496970690195
C         3.35093357706990       3.79882744555261       2.88685891823961
F         3.09592252159130       4.54887176325848       4.00191253031400
F         3.36639919874313       4.66753041473699       1.81489058950235
F         4.62091969710045       3.31832104274599       3.00985705396604
