43
C13H24F3NO2 optimized with ForceField in AMS.
N        -0.83105399144776      -0.20460794545182       0.03138098701710
C        -1.16789543696228      -1.25165898992708      -0.98278051395773
C        -1.96712119662395      -0.22780891240988       1.00380605608106
C         0.44005319499565      -0.56316964306769       0.74214673719752
C        -2.59135499073090      -1.71601819091979      -0.73785459776054
C        -2.80747394603432      -1.45876839590401       0.72633020744018
C        -0.75388924500335       1.13385466781573      -0.63957260581835
C         1.70639188754244      -0.54127600147127      -0.14915681503465
C        -0.39072348855195       2.30479876909326       0.30484824707802
C         2.92004435064468      -1.07797917663314       0.62059535308669
C        -0.48307065792350       3.64166716961602      -0.42521625559326
C         4.17455461670905      -1.08309611349905      -0.24784656687364
H        -1.06603805841904      -0.89567157418972      -2.03348432064796
H        -0.51603293409036      -2.15079158340866      -0.89432211162889
H        -1.63668958628415      -0.22927785788209       2.06759861818018
H        -2.63959627117347       0.65323936120823       0.88727007277961
H         0.34025686459647      -1.58029203351988       1.18771899338277
H         0.61091706520118       0.11812293346688       1.60468630221788
H        -3.29825105607964      -1.10175486150409      -1.33838086307626
H        -2.72685971142816      -2.79165498659879      -0.98513440860765
H        -2.42805003347873      -2.31794275575613       1.32245439202601
H        -3.88247136130603      -1.28929962162782       0.95481832618336
H        -0.01492521174340       1.11196232920401      -1.47066729795164
H        -1.73201430908985       1.36274354769918      -1.12369107201270
H         1.55471954635559      -1.15713965135865      -1.06007820564481
H         1.93241263899210       0.49801345079406      -0.46650450983072
H        -1.07222706149773       2.33552780663212       1.18007049031821
H         0.64823089135256       2.19700619002151       0.67866086486964
H         3.10482939463393      -0.44233697192404       1.51391587781801
H         2.71985485451057      -2.11670733817390       0.96230267447736
H         0.22403505269974       3.66093058477309      -1.28170319313677
H        -1.51593087440909       3.80891200554404      -0.79789986421670
H        -0.21987808308146       4.46567144050154       0.27092701371435
H         5.04027811287975      -1.42981964901559       0.35501783462913
H         4.04326065165899      -1.77034868596461      -1.11048893256291
H         4.39130549720120      -0.06161691802025      -0.62458663249467
C         6.05828735385322       1.51984542481839       2.48448878225015
O         5.68831228911931       1.31217294944298       3.62930303047775
O         6.85663362955875       0.75895484136877       1.96175160640312
C         5.53999652329030       2.70126525875386       1.71858970789978
F         6.59910925484390       3.50259127299177       1.33281542161179
F         4.67259908428573       3.44576176705022       2.49924904408525
F         4.86786379993399       2.26341209263231       0.59283501342492
