55
C15H20F18NP optimized with ADF in AMS.
N        -0.67313127811722       0.36509623465742       1.31622225059451
C        -0.80507740639038      -0.92419505695214       0.49418755986231
C        -1.99190458031583       1.12348611501310       1.09091759326176
C        -2.01594166763089      -0.71602240750187      -0.40286812661078
C        -2.94228233548355       0.09891747109922       0.49861102072079
C        -0.52318281484862       0.04910633886684       2.79834380034904
C         0.49510959186250       1.18139713688035       0.79637167563349
C         0.72707814863644      -0.74081773558537       3.14258189027814
C         0.70785175752733       2.48882318999437       1.52940606416740
C         0.77907414763080      -1.00536645212531       4.64841521419363
H        -0.99141019502011      -1.73769018632668       1.20725467248225
H         0.14000362719789      -1.11511605343700      -0.02916557452620
H        -1.78333746637724       1.92418878218512       0.36815389464938
H        -2.31906362462282       1.55865591334439       2.03775521233747
H        -2.44099524039646      -1.67563212346103      -0.73058671507489
H        -1.74685778483568      -0.13875501996152      -1.30348416055625
H        -3.76964570568521       0.58648393027658      -0.03583502803949
H        -3.37883592385119      -0.53138781242285       1.29077566216138
H        -1.43632432685808      -0.49662307397656       3.08120462734118
H        -0.55362876537990       1.00331063311322       3.33591209452901
H         1.38249930593182       0.53714849164661       0.86884585182641
H         0.28092239192291       1.34546429285290      -0.27180553249543
H         0.74938675706983      -1.69715334137050       2.59140898023820
H         1.62784672301235      -0.17583777747751       2.84989938009596
H        -0.19481118983641       3.11488971115182       1.55206681054270
H         1.04107906631821       2.33785925564316       2.56397920460650
H         1.49385522543005       3.05240388709975       1.00427488349520
H         0.82580966087543      -0.06362222859295       5.20965698886502
H        -0.11801165365089      -1.53971220412564       4.99360033690666
H         1.66223096060674      -1.60863405074481       4.90140408421441
P        -2.41251939142017       2.09232311844042       6.34790574845195
F        -3.61560020891825       0.97711966470565       6.62841457241112
F        -3.20617778652313       3.33545332919904       7.09685072044746
F        -1.52613146228970       0.89758029367327       5.55770292211767
C        -1.73898042882920       1.52784942958026       8.11484102393399
C        -3.55644517662011       2.45063860364446       4.68601481208763
C        -0.95146934247984       3.38755879514702       5.76480436760682
C        -1.05934649202659       0.13158819790752       8.25687413061685
C        -3.55591849010374       3.66258449797101       3.69624974942547
C         0.38416297010894       3.73596424517224       6.48946745547556
F        -2.80575721169791       1.49510791071168       8.98196314638675
F        -0.84134130833104       2.42387567536527       8.65362606378500
F        -4.86029001684165       2.46346801489252       5.12216501786308
F        -3.43407244156245       1.33416207325702       3.84327255980950
F        -1.52884791479926       4.61474467034391       5.54237554065121
F        -0.49865856919199       2.93211732774554       4.51776617949054
F        -0.85412530726998      -0.14026503516881       9.57615433768103
F         0.15637562446830       0.10049927942250       7.64944532064605
F        -1.81579566624255      -0.86637771273011       7.74591666468579
F        -4.52433781195222       3.45561102583775       2.74619317067496
F        -3.83762578844861       4.81911998565021       4.31781085904193
F        -2.38909828149225       3.80558526448111       3.00312880385712
F         0.18891521068449       4.47919384592431       7.59456713439092
F         1.16328335784548       4.48359341145522       5.64376800923143
F         1.09333862131158       2.62219207440792       6.79405378898040
