62
C16H36F2N2O4S2 optimized with ForceField in AMS.
N         0.00253278483809       0.00388831447449       0.00131396660336
C         0.85002119719224      -1.02550600620170       0.70210842375827
C        -0.87103480633744       0.68098160038721       1.02462956612795
C        -0.82115577346939      -0.69202915173395      -1.05094002258318
C         0.85223274246162       1.05123674690773      -0.66973898226624
C         1.89904366619359      -0.47626118780817       1.70392144443564
C        -1.94123367665301       1.65511603537790       0.46701772309323
C        -1.89079140856408      -1.68755031580271      -0.52949341680517
C         1.93994404677186       0.52307858631610      -1.64132505580354
C         2.67561918733441      -1.62902863906679       2.35477403288382
C        -2.76688706345369       2.25781182891116       1.61082598147282
C        -2.64802512383893      -2.32822357588581      -1.70072233269289
C         2.72609599322820       1.68859205490860      -2.25651250712109
C         3.70876713529010      -1.11019125286704       3.35122697445053
C        -3.79552430026851       3.25633566590454       1.08733465860656
C        -3.69456421559806      -3.32408065571240      -1.20738272408768
C         3.78876593028019       1.18698860525119      -3.23098972102129
H         1.37718131224655      -1.66719705550443      -0.03871529281474
H         0.20472383548349      -1.71784027226043       1.28408111993876
H        -0.24732512102122       1.28089961776131       1.72173146147242
H        -1.38263779789680      -0.07431333470304       1.66197927880424
H        -0.16125491516292      -1.27901604539647      -1.72504054761290
H        -1.32508635488600       0.05165443950823      -1.70766113159255
H         1.34501449924231       1.69950065510321       0.08903971848444
H         0.21255226531890       1.73413521878535      -1.26886825511003
H         1.40255048280071       0.09696092685019       2.51249996715795
H         2.62714878185000       0.18663125068067       1.19447375127767
H        -2.63742765736717       1.13515134681018      -0.22125830508440
H        -1.45683186567670       2.48937262234261      -0.07970295914809
H        -2.62924240286078      -1.17558085501682       0.11982263081391
H        -1.41289342367202      -2.50242104820473       0.05067061809558
H         1.47555281145324      -0.04711942316998      -2.47094973500734
H         2.65799547500071      -0.13765714287822      -1.11521065278521
H         3.19770383618461      -2.22078048081085       1.57150965350448
H         1.97026895361616      -2.30149413217429       2.89059550297310
H        -2.09385177544777       2.77936930022566       2.32361629791423
H        -3.29657743104170       1.44916241782356       2.15989074764069
H        -1.93241900968667      -2.86269797368351      -2.36328554929227
H        -3.15605888771873      -1.53913960210160      -2.29687237561446
H         3.22297812594704       2.27363364764603      -1.45209181767486
H         2.03135078983279       2.36325950261161      -2.80318619611918
H         3.21068208166435      -0.53057157487445       4.15756941513367
H         4.44950870526394      -0.46216647691601       2.83631129626585
H         4.24484931799402      -1.96744044328981       3.81041407141555
H        -4.51723986712923       2.74738455016386       0.41360841868915
H        -3.29128101788701       4.07710297898063       0.53372599192554
H        -4.35376681712317       3.69610782359075       1.94051489855131
H        -4.44499039480100      -2.81078472181994      -0.56925564079489
H        -3.21043455417500      -4.13645187744397      -0.62429973636066
H        -4.21692715103366      -3.77556800356973      -2.07710401935765
H         3.31580559705185       0.61431509240255      -4.05729991672359
H         4.51873231059103       0.53611899048533      -2.70430276252471
H         4.33258581327213       2.05196954544666      -3.66575446620560
N         0.89074680260258       4.66504558247513       2.07033555611614
S         1.45223716499730       5.86607750790678       1.11167970879565
S        -0.08876034152018       4.98385894530167       3.34145871212917
F         2.61404512833712       6.73927805285561       1.94339903804431
F        -1.60735926567546       5.40461867260781       2.77584710244616
O         2.06234041931732       5.27670705467825      -0.12762590685524
O         0.32818646726119       6.78938922861976       0.73407729073246
O         0.46446588702087       6.12872811896875       4.14255411451128
O        -0.19752245327418       3.76379681702579       4.21043121589355
