46
C12H26F6NP optimized with ForceField in AMS.
N        -1.62978232927415      -0.29559382023791      -0.18302433996202
C        -1.91158110772823       1.11938368550083       0.20839992845056
C        -2.63987154529422      -1.21414541113348       0.43307814603912
C        -0.29206839160043      -0.71305675441782       0.35399507018459
C        -3.35649942922641       1.56115509555177      -0.08149195425698
C        -4.10476573687111      -0.81289167828391       0.17564137701613
C        -4.35478766073086       0.63029769674853       0.59608721321373
C        -1.64173624917328      -0.45007843709660      -1.66335234699229
C         0.92847438835533       0.06629793778829      -0.19538369431452
C         2.22725022470291      -0.45439216090172       0.43585903384395
C         3.45254961772010       0.27530161594338      -0.12767793228544
C         4.74317824497610      -0.25582252668340       0.50606564405425
C         5.97165622407731       0.43062195082946      -0.08278966249174
H        -1.24268220412390       1.82264711085415      -0.33329011901837
H        -1.72259122440943       1.26274528403263       1.29719849686739
H        -2.50475523082231      -1.24873799543592       1.53945948635243
H        -2.49486662883952      -2.25578907447323       0.06481366752920
H        -0.28116450723317      -0.60944982835062       1.46373429939385
H        -0.12338698171722      -1.79455821512059       0.14213598484804
H        -3.50574392490046       2.59175500946675       0.30817344967879
H        -3.54389245852071       1.59274988675574      -1.17592137319593
H        -4.38161983493528      -0.95730398462756      -0.88888542859267
H        -4.76942470427152      -1.47749676390870       0.76939590712408
H        -4.25703531267153       0.71897213215570       1.70078362433210
H        -5.38840080367169       0.92554351682900       0.31509119734444
H        -1.01560063538789       0.32173886731126      -2.15939744894398
H        -1.26990279241043      -1.45506323598607      -1.96359385371481
H        -2.65523685721456      -0.33357808005635      -2.09292211521294
H         1.00620427509078      -0.06023597753895      -1.29509817177341
H         0.83938901145157       1.14673066267278       0.04017548251307
H         2.18630169612455      -0.30643140142147       1.53787717333817
H         2.32561603368598      -1.54346212710994       0.23035614397098
H         3.36172638266222       1.36463590664021       0.07871276116024
H         3.49422559706281       0.12580318268976      -1.22926753390232
H         4.82380642218716      -1.35002675763311       0.32985488592154
H         4.72291300383506      -0.07878596145694       1.60348857235990
H         6.02078845618134       0.26105981871883      -1.17937066393523
H         5.93711606438962       1.52238066767081       0.11882812034565
H         6.88906520636160       0.01138974519868       0.38209102128554
P         6.48700049413090      -3.25308897941327      -2.32226075404464
F         7.07562936911115      -1.73712566777350      -2.87515710226117
F         8.05966415638012      -3.94046128473578      -2.39513490184774
F         6.83238465822687      -2.82593088404622      -0.69507416606858
F         5.78009590367342      -4.71897639197963      -1.77239977419229
F         4.92794655961883      -2.53386921343290      -2.26434434710330
F         6.26558216812257      -3.77947954210300      -3.94230971005738
