47
C13H26F3NO3S optimized with ForceField in AMS.
N        -0.72064414457722       0.31912242786921      -0.15337803355480
C        -1.28909956135445      -0.44438089971358      -1.31197787594823
C        -1.84811165846485       0.73465918248881       0.74420828166462
C         0.26747723401926      -0.50240779964268       0.63057870562153
C        -0.08266602680233       1.55490179858839      -0.72658272486679
C        -2.14192337414472      -1.65778555410563      -0.90612578889957
C        -2.74926399939613      -0.43090437212147       1.20147716422512
C        -3.28113249405188      -1.22642729903359       0.01232212536781
C         1.54082279359208      -0.93076343705416      -0.13671958044585
C         0.65417525006557       2.46530063085345       0.28693898961355
C         2.46988647858601      -1.74636850171073       0.77111747095188
C         1.22497987766854       3.69931443801876      -0.40851806103240
C         3.72650755718290      -2.17659091881759       0.02217749170861
H        -0.49489110361530      -0.78141169546039      -2.00972665775698
H        -1.94518933432031       0.22073937395779      -1.92146363809414
H        -2.50034440198075       1.47908636500851       0.23170276871348
H        -1.46496426836455       1.22569556363863       1.66437875598082
H        -0.20230361534571      -1.42845384049290       1.01412364932889
H         0.57761908884931       0.04481462916410       1.54769027916353
H        -0.85554559655513       2.17879480493768      -1.23316781455875
H         0.63358783684633       1.28295220014746      -1.53388459118847
H        -1.52446396035794      -2.44222081290115      -0.42219083426468
H        -2.57580855460272      -2.11412977567178      -1.82218034655993
H        -3.61193446239287      -0.01639981649992       1.76683404315444
H        -2.20714816225004      -1.10249620895686       1.89919538337681
H        -4.00128050559490      -0.60033169669190      -0.55921376778868
H        -3.82252210846844      -2.12501192289747       0.37883924613115
H         2.10248314619824      -0.04357265820934      -0.49317518440198
H         1.27551603717457      -1.56262627920629      -1.00802021481103
H        -0.03581390892288       2.81475179801060       1.08085473614084
H         1.50161352727315       1.92997857340528       0.76089525635859
H         1.94085010683373      -2.65406303038447       1.13546142797656
H         2.76703452774860      -1.13466602663965       1.65085211735481
H         1.75732988224617       4.33205002759920       0.33278216687004
H         1.94510283699377       3.39912626286348      -1.19940366100622
H         0.40849559919851       4.29909137338622      -0.86415893624066
H         4.25567466035302      -1.28606039489457      -0.37717109097095
H         3.46230778993882      -2.85045731433701      -0.82025119349743
H         4.40557775334983      -2.71886445763161       0.71349930678097
S         7.52783052450324       0.24600646988648       0.10425368278289
O         6.76904219710559       0.96187094444627      -1.02331748641549
O         6.80072972733246      -1.10091292549757       0.21559953317545
O         7.07255497652312       0.99275425822793       1.36685166701757
C         9.32135631915110       0.11749865056962      -0.12040690494382
F         9.87367158364170       1.38258650337015      -0.16719360282250
F         9.58988525333313      -0.54708344529172      -1.30137019119422
F         9.86660978735433      -0.58507964747399       0.93668399160363
