34
C10H22ClN optimized with ForceField in AMS.
N        -0.11799554996435       0.03363205593706      -0.07271292017595
C        -1.02790983896931       0.55999605726574      -1.14193217439654
C        -0.65433614242597      -1.28007549395759       0.41345830689469
C         1.21651730601532      -0.20491933936349      -0.72394063907761
C        -2.49971081103759       0.68461660573525      -0.71039404577088
C        -2.12802715316948      -1.23117165050631       0.86637212752932
C        -0.00424381053909       0.98880643201197       1.08385233750193
C        -3.02967433944599      -0.65906502496382      -0.22259711870550
C         2.34723849624690      -0.69284074360684       0.21668751739224
C         0.62564370601722       2.35656084113751       0.76172980571082
C         3.62963462932480      -0.96554690352293      -0.56629340230128
H        -1.00814044253672      -0.11860784305000      -2.02691840750261
H        -0.68262140697440       1.54363839928561      -1.52136078637445
H        -0.06708485684213      -1.65308747948335       1.27940686653220
H        -0.57561800868180      -2.05215311106769      -0.38641292603498
H         1.56680282108171       0.71677046184056      -1.24021956896097
H         1.10859338670757      -0.96236132163693      -1.53491133856693
H        -3.10505917643660       1.00996421711880      -1.58410296277992
H        -2.62634856118993       1.46081232091221       0.07173495121676
H        -2.23575261390447      -0.64172660791261       1.80054288551058
H        -2.46545281923444      -2.26446361578177       1.09975383979863
H        -0.99501831045668       1.19585722211689       1.53187024951479
H         0.58117631152716       0.52962262660223       1.90950668562379
H        -4.05823608551462      -0.52913622276176       0.17804905994463
H        -3.08097191939727      -1.37145104440612      -1.07537588193637
H         2.58161352220151       0.07162228014506       0.98491228611107
H         2.06191403969191      -1.63463392636231       0.72586085930712
H         0.66924736303206       2.95730098759891       1.69468525854037
H         1.66518783372830       2.26040010719234       0.39153758961978
H         0.01483617917216       2.93002518878752       0.03716924865971
H         4.40915578721469      -1.35230890525029       0.12337781423903
H         3.44944128392720      -1.72646370942336      -1.35512490591488
H         4.00334134161908      -0.03073378100547      -1.03540170640513
Cl        7.22444187521327      -0.12899416702499       0.27367854765653
