31
C9H20ClN optimized with ADF in AMS.
C         2.67754025067073       0.33903401599740       1.60454700199370
C         1.70116880312151       1.29977088532647       0.94029078215404
H         1.29073969862542      -0.88417488988644      -0.79518252150436
H         0.23314908675021      -1.63579031640591       0.44134202274979
H         3.01787016168200      -1.64225667213353       0.65654513754915
H         1.94451784794223      -1.60859656358212       2.11061941247670
H         2.58398118321272       0.38485437695914       2.70602461729010
H         3.70652683930841       0.57695180970334       1.29786829092330
H         1.37839132366431       2.13433319613534       1.57836661610883
H         2.08342452404255       1.69465782656299      -0.01367605283527
H        -1.27517016893023      -0.27537342815900       1.54240446434283
C        -0.45411903321233       0.41202900265739       1.77836652194640
H         0.11147747929826       0.02957566466260       2.67888890431376
H        -0.84610244440127       1.42164445921043       1.96289200569752
C        -0.22103162833571       1.14163173009130      -0.59448807714639
H        -0.32051287503184       2.20233095229777      -0.31465808646468
H         0.49256753698160       1.07692206563924      -1.43281097607218
H        -2.27928339506810       0.63467620918639      -0.15674453085477
H        -2.94638824020332      -2.10279152503101      -2.74977785520218
C        -1.59074978322383      -0.79666000591269      -1.64366880376490
H        -0.78424060462166      -0.86164472049002      -2.39724396296361
H        -1.37528830635949      -1.56966383809973      -0.88928031339657
C        -2.93515459490388      -1.09908499444042      -2.29959036107154
H        -3.15657476161863      -0.36846136847669      -3.09377964725426
N         0.45927502199255       0.48456377992654       0.58926902325750
C         1.02347339687751      -0.89585275880322       0.27170566152935
C         2.23233110359286      -1.08004009400509       1.18251089602382
H        -3.75151682870972      -1.05109352640283      -1.56138740752612
C        -1.57697194692381       0.59271300012224      -1.00592521994397
H        -1.96817722254766       1.31800025415407      -1.74441713391079
Cl        1.13040358032859      -0.77357557270393       4.33643384505479
