40
C10H22F6NP optimized with ADF in AMS.
N         0.08199881319335      -0.48944704796840       0.38385348756474
C        -0.41450503305480      -1.34265883820721      -0.77340300096982
C        -1.01924126491793       0.53734410897066       0.51689266949717
C         1.39773035010465       0.16803461735615      -0.00723709780215
C        -0.99002703817534      -0.34037556873334      -1.76930636790609
C        -1.41463098609797       0.88842066187179      -0.91988571259277
C         0.21422107098035      -1.30342015892485       1.65172064906446
C         2.03384033360534       1.04376794362511       1.05758612919934
C         1.29003498844922      -2.36794999915524       1.58818608018159
C         3.36494817584284       1.59048247865064       0.52349324482020
C         4.08000657956850       2.47380636100012       1.54112565636020
H        -1.19869766419374      -1.98811923104298      -0.34767585098066
H         0.40715625802050      -1.95293033931914      -1.17033264000868
H        -1.84191763046117       0.03611269327133       1.04889248556482
H        -0.66297057788176       1.38005957261207       1.12135653942425
H         2.07506227513839      -0.64399985057047      -0.30090665947848
H         1.19054911483523       0.74844506853983      -0.91673490799080
H        -0.22951060819063      -0.07497802718841      -2.51730957526140
H        -1.83589455071996      -0.78851602584153      -2.30920989643372
H        -2.49594101628710       1.08236446496118      -0.97289636197357
H        -0.90498578092091       1.80163526015676      -1.25976032051843
H         0.39370480438216      -0.58436050366798       2.46524019263826
H        -0.78017960819343      -1.75090768962812       1.80983768226926
H         1.38274986815206       1.89009314460662       1.34280810360016
H         2.23895655057698       0.46197192331321       1.97266568366380
H         2.29898600171148      -1.94340170172832       1.50339730908237
H         1.15425471868220      -3.04953648710393       0.73700553631053
H         1.24348548345203      -2.95780815273618       2.51600684331514
H         4.00579144611712       0.73923867353483       0.23549675501436
H         3.17680713922554       2.16227295180650      -0.40308032312136
H         4.29843299358299       1.91660703273376       2.46639888385602
H         3.46942781823279       3.35109699122637       1.80990439379772
H         5.03643207340131       2.84081259117102       1.14014624762612
P         3.19974493985904      -2.62726195000273      -2.26124948310043
F         4.47267210227004      -1.82876968909237      -2.90886567645158
F         4.12151187873328      -3.93118065482683      -1.90935411865453
F         3.56394781638595      -1.96903618953149      -0.75088243237801
F         1.86847778234538      -3.38023566041457      -1.54942035096628
F         2.21617812534281      -1.29161488280921      -2.54984414366975
F         2.77650872840318      -3.25016305011463      -3.71315115619200
