23
C7H13ClN2 optimized with DFTB in AMS.
N         1.21014108491477       0.19899908219152      -0.39225393055562
N        -0.92407824703421       0.45715106857586      -0.29932598897233
C         0.05492295146061      -0.26693196027620      -0.85329842965637
C         2.53516136489997      -0.32674084839428      -0.71773003605742
C        -2.35161965098564       0.23920836331758      -0.49084841647559
C         0.97830467155543       1.22219936400635       0.48227887118305
C        -0.36837824271871       1.38681357016202       0.54368101797905
C         3.00506280112284      -1.25939914418851       0.39142614490497
C        -2.89451498960087      -0.65478817394777       0.62016573980903
H        -0.07625596672180      -1.06567056649892      -1.56319168860262
H         2.46653093855370      -0.84359232106583      -1.67850478635153
H         3.21584348981580       0.52769640130897      -0.78519118983634
H        -2.84672075626398       1.21388419629085      -0.48058066524097
H        -2.49741591916184      -0.22588290147602      -1.46956737356228
H         1.82056574240795       1.73054422979410       0.95156919112949
H        -0.97256169313583       2.08126612502506       1.10006256232724
H         3.14372354119497      -0.68892764568628       1.30890291398335
H         3.96091838955311      -1.69320482977630       0.10271841566999
H         2.28401988287654      -2.05955626368561       0.56164621564335
H        -2.39156852976368      -1.62122427675221       0.60758831333083
H        -3.96213850057275      -0.80815940059196       0.47031755089573
H        -2.73630517247461      -0.18869748252913       1.59196332607816
Cl        3.91704918207822       1.88715886979669       1.06669322457682
