27
C7H13BF4N2 optimized with ADF in AMS.
N         0.84099997651006      -0.84430524414188      -0.17060177117054
N        -0.85981121714838       0.31423800374383      -0.85629612451952
C         2.24279587932028      -1.24101234532666       0.03860452835885
C         2.81643462191863      -0.73114133402735       1.35789502278849
C         0.46741492304001       0.33313947226371      -0.68454440632696
C        -0.27625135971364      -1.63913295220481      -0.01459114387612
C        -1.34795282016527      -0.91146406837604      -0.44521028835568
C         2.86615597281131       0.79190691994799       1.45956401342776
C        -1.61884173226357       1.39871187329265      -1.47655276160501
H         2.79794257409791      -0.83866817219854      -0.82261602115133
H         2.26357194483224      -2.33910513928497      -0.01072550719107
H         2.24831554942914      -1.15967464542117       2.20214215343378
H         3.83939453753887      -1.14014204834811       1.42320787971354
H         1.14189336438507       1.13290752760864      -0.97578684554886
H        -0.21137893600520      -2.65202485723575       0.36201430403465
H        -2.39906553171732      -1.16244434939194      -0.51074655033997
H         1.85583956267642       1.22526804706358       1.52691368504432
H         3.36688959081756       1.22841659337099       0.58158715305199
H         3.41077286041062       1.10079255888906       2.36389305416893
H        -0.96007862186459       1.88483907933640      -2.20906497316319
H        -2.48644664036994       0.96719267956148      -1.98786647860183
H        -1.95037578355736       2.11109135684407      -0.70949528199591
B         2.13302660793846       1.02517083881206      -3.14327900413124
F         2.88553857307908       1.21927661812283      -4.29230920702043
F         2.94922406687749       1.17052022923796      -1.95305940555720
F         1.54985022272178      -0.27960034874495      -3.09991686457707
F         1.07130851160036       1.99458138630694      -3.03311287489036
