48
C12H28F6NP optimized with ForceField in AMS.
N         0.00034492692561      -0.00207362520289       0.00070759627405
C        -0.84810025156640       0.64168464386556       1.06596570405715
C        -0.84777700605927      -0.64837536296599      -1.06334725769033
C         0.84980875736451      -1.06615448753350       0.64453392146485
C         0.84730192860910       1.06433373799235      -0.64392044796474
C        -1.91528553614094      -0.26890362141997       1.72699990816663
C        -1.91694824865659       0.26035751874226      -1.72149693175512
C         1.91708537382563      -1.72633727879630      -0.26655087365083
C         1.91442575769204       1.72678025927954       0.26592234204537
C        -2.70544269623173       0.50047301964700       2.78400612656371
C        -2.70223511155717      -0.50322337469151      -2.78606904057416
C         2.70704218113707      -2.78363527096362       0.50243808003161
C         2.70299765636973       2.78506476823378      -0.50360739409951
H        -1.35790068346142       1.54571301946885       0.66450125311562
H        -0.20382713703860       1.00872342018537       1.89342051161026
H        -1.35512128805230      -1.55379967252933      -0.66205195311494
H        -0.20362420438771      -1.01272158784035      -1.89214102234477
H         0.20622364217368      -1.89423162300794       1.01148642424239
H         1.35918662376645      -0.66428114722109       1.54848372625728
H         0.20241293971142       1.89198882889313      -1.00940679299271
H         1.35622757655606       0.66402031162129      -1.54885825395216
H        -2.63795099032017      -0.65505583254097       0.98075674686936
H        -1.43828277395226      -1.13060713248865       2.23509613946314
H        -2.64174299258771       0.64233941285191      -0.97532523877918
H        -1.43852614147273       1.12352125812760      -2.22131502762025
H         1.44056059043563      -2.23437988819005      -1.12864020022316
H         2.63936372885273      -0.97938224777886      -0.65215789401509
H         1.43737624113404       2.23470421594574       1.12779961970406
H         2.63798356858075       0.98120826947447       0.65168667859280
H        -3.45772734582818      -0.17081560356281       3.24871973289801
H        -2.02563898238897       0.87125031526716       3.58034225952872
H        -3.23519326348043       1.36097263184916       2.32342072032573
H        -3.45207519810258       0.17121564635023      -3.25033432057291
H        -2.01940530144617      -0.86948398682587      -3.58187440488698
H        -3.23417553575527      -1.36583195655222      -2.33197581208682
H         3.46015647761818      -3.24749420801597      -0.16848693084025
H         3.23549662897053      -2.32337917922606       1.36385671840873
H         2.02714340835878      -3.58054892250582       0.87187958486078
H         3.45550062724151       3.25010107586002       0.16731570434233
H         3.23244164479711       2.32551815710846      -1.36479000827606
H         2.02240004137585       3.58125685749755      -0.87333811877271
P        -1.17961271831685       3.17843922529731      -5.79028332168802
F        -2.82079214468874       2.95795285149979      -6.24799420024779
F        -0.86288729197852       1.52664777627369      -6.14200450741660
F        -0.78510257675290       3.62914484180599      -7.40064115966816
F         0.45747907126007       3.38469801492256      -5.31119199998194
F        -1.50011165216443       4.82357504159191      -5.41326492745368
F        -1.59405990716841       2.76235489860704      -4.17771199625371
