64
C18H26F18NP optimized with ForceField in AMS.
N         0.98337322862393      -0.31286070514039      -0.00149693291897
C         2.05725206323061       0.07303091834195      -0.96838000456736
C         1.64828851106540      -1.24362591579247       0.96152005973197
C         0.49111966856056       0.89760668449956       0.73457207058917
C        -0.11469481953256      -1.02447831585763      -0.73384796394244
C         3.26167855988873      -0.81485150393185      -0.72106914695804
C         3.14524450172876      -1.17257076267048       0.73271953729444
C        -0.25107078343728       1.92910145545162      -0.14965443626916
C        -1.30393455329465      -1.45862088618113       0.15665571998414
C        -0.56015369148097       3.20526340493132       0.64235689578640
C        -2.29770995738872      -2.31259335127220      -0.63977056729075
C        -1.29981290280127       4.22479493135531      -0.21935768007723
C        -3.47895038469292      -2.73870505488727       0.22733279363635
H         2.39804120527447       1.12421965291499      -0.82327066231366
H         1.74180184694279      -0.00890991635445      -2.03391726016218
H         1.34929913764084      -2.30465128931357       0.79614455646828
H         1.41724045361476      -1.01501736959510       2.02727225001541
H        -0.18574012154858       0.60130226682718       1.56643718755288
H         1.35213952675093       1.40803210057985       1.22611853328647
H        -0.50895540012119      -0.39030847514859      -1.55868864157244
H         0.29999569823137      -1.93060841838664      -1.23438182253123
H         3.18687053945080      -1.73344828965312      -1.34395995817066
H         4.21788052704956      -0.29054799583835      -0.93835374063328
H         3.58505331021105      -0.36410415996659       1.35812760803198
H         3.64795687983661      -2.13850963032931       0.95843946433826
H         0.36059116328080       2.19527311541964      -1.03700883153419
H        -1.21218633376098       1.50311889274968      -0.50526443746192
H        -0.94477211727428      -2.04367445391459       1.02913878577311
H        -1.84297120852680      -0.56536119471082       0.53470045990014
H         0.38639244783872       3.66219291629962       1.00443744210614
H        -1.19059899947864       2.95466856255617       1.52330346237778
H        -2.67997350002520      -1.73007888921428      -1.50632072230428
H        -1.78842036891342      -3.22307109423089      -1.02381429285393
H        -2.25923994954381       3.79969271175844      -0.58387246035385
H        -0.67503835090638       4.51988967320319      -1.08907045906508
H        -1.51970837537530       5.13092198292076       0.38364524628184
H        -4.01628889659404      -1.84674373815310       0.61432360026409
H        -3.12716422421733      -3.35492003023080       1.08192296214259
H        -4.18583945838642      -3.34313357234190      -0.37928492404502
P         6.61313333456534      -7.66638264871753      -0.74210990852826
F         7.87763704000428      -7.11965114317212      -1.77411055354324
F         5.28034949667176      -8.28924229162628      -1.64003169903459
F         7.90881370653379      -7.38417056903499       0.35410665161480
C         7.30731515121436      -9.35266079651040      -1.40178590184890
C         6.08556824048029      -5.91017143174793      -1.36175487766535
C         5.72177964119582      -7.80573266913477       0.96718559501014
C         8.80450219899594      -9.66846765910166      -1.13541222353015
C         4.67527830636375      -5.41927658052757      -0.97143345501615
C         5.98293461970835      -9.08070552891918       1.79292044480454
F         7.14132248899099      -9.40017340349968      -2.78070090485609
F         6.56696953709437     -10.39327218655675      -0.87765996665383
F         6.12457393433646      -5.87413973868334      -2.75276649354101
F         6.98941528934146      -4.97493462590185      -0.87777249822007
F         4.35480932348831      -7.76563378906864       0.75847201485598
F         6.04939174634344      -6.71340746534838       1.75875956554841
F         9.06029309989759     -10.96801554191178      -1.53639521202023
F         9.13507479866542      -9.57083517286825       0.19891751270364
F         9.63609312547265      -8.83742788949895      -1.86437092523736
F         4.41984648603038      -4.23285224706336      -1.63670305307512
F         3.69993453419873      -6.32634231763087      -1.34118574998339
F         4.58477687545455      -5.15885718412158       0.38110259901909
F         5.32615160733760     -10.16463926289765       1.24209097284760
F         5.48091907873711      -8.89802917663378       3.06953074029575
F         7.32652333525727      -9.35923759871646       1.90719372481806
