46
C14H29NO2 optimized with ForceField in AMS.
N        -0.70726901180070       0.31395642045678      -0.15364857895273
C        -1.28027135975050      -0.44729007545918      -1.31169242669356
C        -1.83081504431625       0.73013655523321       0.74883959913986
C         0.28341145717434      -0.51000760117498       0.62502168865387
C        -0.07047508358005       1.55065969139223      -0.72654349387874
C        -2.14075490532845      -1.65580921518811      -0.90548510966130
C        -2.73462061018359      -0.43339462880959       1.20503638535031
C        -3.27682138600157      -1.21654452284522       0.01303137363914
C         1.55898114831351      -0.93129813198993      -0.14453778511996
C         0.66038328867937       2.46437991457231       0.28861975325806
C         2.49544094475472      -1.74074697031898       0.76133920446211
C         1.24179572074975       3.69272149606153      -0.40779706310511
C         3.75884289116344      -2.16044975001419       0.01505643978915
H        -0.48803440704472      -0.78908940297586      -2.00939421393070
H        -1.93347945974206       0.22062045078031      -1.92116264546855
H        -2.48259786743809       1.47777191083211       0.24022834485073
H        -1.44372083852265       1.21704172658293       1.66957555760042
H        -0.18408788248533      -1.43934085241947       1.00381060572234
H         0.59239215957318       0.03232003290124       1.54525121016155
H        -0.84322159629189       2.17287555878655      -1.23525149868639
H         0.64709512603058       1.28026444085105      -1.53289885249444
H        -1.52816914357059      -2.44316229562477      -0.42025319536790
H        -2.57725830407131      -2.11037696084151      -1.82110871803900
H        -3.59130244597846      -0.01815042847510       1.77891969168417
H        -2.19079369444947      -1.11299340307156       1.89363850927725
H        -3.98938094384264      -0.57901968243636      -0.55576268729947
H        -3.82908001583214      -2.11031478811971       0.37531050661412
H         2.11544016599557      -0.04164236320057      -0.50204380640979
H         1.29397996259739      -1.56502549813060      -1.01467339592909
H        -0.03678166159481       2.82111846692477       1.07310929854777
H         1.50117504904619       1.92938117772834       0.77453978593374
H         1.97285575116499      -2.65313704741839       1.12296453131299
H         2.78612210097394      -1.12895866513588       1.64298330885287
H         1.75719918630408       4.33455202574441       0.33749620598402
H         1.97943937556223       3.38575613575937      -1.17936014815157
H         0.43382839192233       4.28606936476621      -0.88658413853513
H         4.31909481048484      -1.26489730408645      -0.32860197646018
H         3.49759910457795      -2.78894262759970      -0.86286991694103
H         4.41231946358969      -2.74996006442709       0.69183928547757
C         1.78773060309005       5.41545776411231      -4.08641770042090
C         3.19837007859796       5.84693909170744      -3.83699314045462
O         3.62438162147348       6.86567318247193      -4.35677080968615
O         3.92661775399822       5.18424718038197      -3.11598667514107
H         1.08899109119230       6.19969238932446      -3.72683538320869
H         1.63294522046169       5.25938700311846      -5.17470734887590
H         1.56706196865350       4.46603613317326      -3.55351322750005
