26
C8H11F3N2O2 optimized with DFTB in AMS.
N        -0.02647896834279       0.33430584512203      -0.20991643539515
N         2.05583858722525       0.62849710120452      -0.68052294515493
C        -1.23105956161563      -0.09495398723818       0.49286655224783
C         1.21098782072362      -0.06240545022412       0.08927281218647
C         0.03964097484167       1.37544949369348      -1.10319247317885
C         1.34891167457767       1.55720319060850      -1.40262560651597
C        -1.35384299678402       0.65979494499997       1.81216355643812
C         3.50094901389978       0.57947934903424      -0.53503712697335
H        -2.08531319947670       0.10608644541090      -0.15936974345440
H        -1.15861756734798      -1.17363719323387       0.66150238216792
H         1.46966604235993      -0.89939335186390       0.71202738471924
H        -0.84162881470272       1.88459955001989      -1.45036730211284
H         1.83182790403480       2.26850082533587      -2.04895067795288
H        -0.51002037309006       0.41976926069538       2.45731291636821
H        -2.28198895527626       0.37570823247416       2.30611965328027
H        -1.34911116960431       1.73333322136041       1.62956978030503
H         3.75584688954544       0.91668402813214       0.47192841400234
H         3.84812547618394      -0.44328422530453      -0.68164014680986
H         3.95363011591018       1.23694978005901      -1.27397268624225
C         1.63912893917365       2.23678009125579       1.91724192623957
O         1.82798032912680       1.01243301542369       2.02383996014313
O         0.73270419168166       2.86934827637658       1.40081885100009
C         2.86230307380826       3.09899103992150       2.50285796879677
F         3.11852171194847       2.84552380438756       3.79318416975639
F         2.69463573281749       4.41930811623421       2.37833149038894
F         3.99055936228188       2.78400008001471       1.81254996065011
