70
C20H30F18NP optimized with ADF in AMS.
N         2.90637325410370       0.32085434272963       0.44426481448551
C         4.01605949677231       0.27356182064332       1.48292142660203
C         3.22988005338224       1.61788314386960      -0.28103417663630
C         2.96769649133768      -0.84324801770626      -0.51578216394654
C         1.57004929702131       0.41103928153941       1.15169393781618
C         4.15491899501778       1.71103292599939       1.97871501016192
C         3.63861186721691       2.59782407493715       0.81537266606460
C         2.82693146314706      -2.20721643804935       0.13181514725516
C         0.35309198199142       0.39825597304353       0.24294972225238
C         2.96938091941126      -3.30218738014939      -0.92865509945335
C        -0.91830640272528       0.71773813540404       1.03270537591487
C         2.88857562746604      -4.70561318679749      -0.33153483129996
C        -2.16892866425829       0.68630333556910       0.15463608661237
C         2.98605075352068      -5.79723676706527      -1.39413632560428
C        -3.44407621526300       1.00818398366332       0.92892530516216
H         4.92427995735285      -0.04786722242930       0.95756884380465
H         3.75366477410435      -0.45855889417841       2.25680971529439
H         2.36852315933786       1.91971933478520      -0.88925262441944
H         4.08534380670303       1.39049834185953      -0.93187254464875
H         3.94020032467069      -0.76324617981366      -1.01518240253969
H         2.18541214656397      -0.67235083315529      -1.27013732330310
H         1.59947088772603       1.33831314378879       1.74077017586469
H         1.53537671904758      -0.43202491649915       1.85757075974576
H         5.21040028785171       1.91084395284398       2.20264334626140
H         3.57442761695435       1.87969656585159       2.89813720304407
H         2.79440181291297       3.22776267240998       1.13348460046645
H         4.42766825318837       3.25721141317345       0.43146224901601
H         1.85203740472078      -2.31620991728901       0.63919062744823
H         3.61594185660998      -2.34578821677516       0.88941205912316
H         0.23894777509091      -0.58918011527139      -0.23464294720960
H         0.46310110664659       1.13933522119387      -0.56644063279478
H         3.93708564655029      -3.17785251443483      -1.44702619526430
H         2.18028744339753      -3.18128591834062      -1.69379211946715
H        -0.82141769056743       1.71640094650306       1.49722338874249
H        -1.03316708151854      -0.00485588081698       1.86152970981772
H         1.94056568132757      -4.81177330705808       0.22718711531500
H         3.70317555656914      -4.82817460475588       0.40424251501867
H        -2.25811332069512      -0.31154892468854      -0.31105482559252
H        -2.04425088609336       1.40684063779418      -0.67348947676582
H         2.93858269040838      -6.79969350627107      -0.94299415832226
H         2.16200941997376      -5.71393400622934      -2.12063846361011
H         3.93371944378028      -5.71984496066442      -1.94973377531451
H        -4.32579593043268       0.98283871457078       0.27133429024475
H        -3.60851493165928       0.28188373849609       1.74041192109499
H        -3.38978139288305       2.01128492558172       1.38094171061528
P         7.75893723314752       0.98680570862265      -0.54572778798965
F         6.33488637874895       1.86664279428202      -0.79496517599891
F         8.34062031350789       1.35356652178583      -2.04912763346873
F         7.15188403968012       0.58227760788797       0.97510445777586
C         8.48497187526775       2.71864901739055       0.06824608481484
C         6.74740994056364      -0.56891750344220      -1.43102618218642
C         9.30836248064445      -0.22767858383926      -0.12969086794601
C         8.00078945680936       3.36291453080415       1.40308278648991
C         7.34617525591384      -1.57566122922176      -2.47888290151295
C        10.45056708984377       0.01586832183977       0.91630584895935
F         8.19421034829497       3.67369758609553      -0.88428657655429
F         9.85634619646610       2.67129847158066       0.15859496447952
F         5.70663671882686      -0.00408354227099      -2.16993919476227
F         6.12600039861402      -1.37816225675818      -0.48221452111792
F         9.96551135029911      -0.54015628495371      -1.29701439014244
F         8.70626540928966      -1.38605838811062       0.33359926986682
F         8.67202504514979       4.52766342627225       1.61073147299615
F         8.20355245008199       2.57733857405588       2.48283568050329
F         6.67321886383993       3.66822495784652       1.35079493185675
F         6.30171708076328      -2.29408611118526      -3.01655428073018
F         7.95608871953981      -0.92950890634578      -3.49013009479006
F         8.19490168470093      -2.47639247095482      -1.95232457520717
F        11.45944035052436       0.75840671730396       0.41493901473259
F        10.98905538048802      -1.18738023601854       1.26977248973577
F         9.97955352451256       0.59616850412156       2.04424812214365
