39
C11H14F6N2O4S2 optimized with ForceField in AMS.
N         1.10854581534778      -0.01047977913557       0.55112004362966
C        -1.24895491273110      -0.00168268334980      -0.13454968667240
C        -0.27313666500529      -0.01904834078004       1.04625757047253
C        -2.70361086372975      -0.00595247610063       0.34504640028486
C        -3.67004066555773       0.01003086792882      -0.83570729846566
C         1.73580131025587       1.18169837858362       0.31180650097604
C         1.73819946171621      -1.19358216020593       0.27537442962756
C         3.02305065860095       1.20906516995115      -0.22964341375756
C         3.02585056376868      -1.20175776743054      -0.26617295351427
C         3.66579124395359       0.00868423281205      -0.52705709139707
H        -1.06589515581281      -0.89572629219357      -0.77054602677114
H        -1.06348170486313       0.90864886692096      -0.74630638801820
H        -0.45276046958697      -0.92273539235301       1.67097540220207
H        -0.45393162351622       0.86506708371595       1.69811937936638
H        -2.89477073818482      -0.91598855062224       0.95446513270489
H        -2.89257330999516       0.88907167416406       0.97699666986384
H        -4.71502111185095       0.00600051820930      -0.46061766803043
H        -3.51569825263834       0.92384703340418      -1.44845863554428
H        -3.51711502880590      -0.88791121355959      -1.47183017560993
H         1.23460285232914       2.11922780645518       0.52217464822140
H         1.23861015908414      -2.13804274702957       0.45648420356774
H         3.51196781498032       2.15387650558326      -0.42879103942177
H         3.51713563542429      -2.13894796759131      -0.49367039921104
H         4.65395680166273       0.01695589530824      -0.96655812611658
N         9.37406865002964      -1.86601016554778       1.41323317814548
S        10.44111663431034      -0.92410723169249       0.59920378964703
S         8.23858299703318      -1.25843399614135       2.42844962648165
C        11.93385111280416      -0.76870312237295       1.55822228698890
C         6.68213750677236      -1.16725215032055       1.56917116312591
O        10.77546109815316      -1.57866907812453      -0.71106955545708
O         9.86145568767989       0.44004964424775       0.34558415695197
O         8.62829642712391       0.11182729687756       2.90993457900038
O         8.08699338316060      -2.17984475335543       3.60523441596817
F        12.85004191164752       0.00202389437503       0.86792704820461
F        12.46850164985016      -2.02303419890668       1.78344077999189
F        11.65006156263507      -0.16791230302425       2.76968297749850
F         5.71859530539400      -0.63648655575436       2.40588812090114
F         6.29746584569620      -2.43449065937710       1.17386175521639
F         6.81836198756430      -0.36134207656783       0.45591840284842
