40
C12H25NO2 optimized with DFTB in AMS.
N        -0.42860589936341       0.29609065829912       0.12439044909362
C        -1.34377044381018       1.20637754379318      -0.64612635130116
C        -0.65859288311311      -1.13065231478545      -0.28769058177284
C         0.96978450687238       0.70145715569213      -0.26363824281391
C        -2.81012946186687       0.81154374968076      -0.54985087425103
C        -2.11987710999592      -1.54816983738968      -0.20867885372403
C        -2.98908598005379      -0.61910727802550      -1.05094841222052
C        -0.62154277686709       0.47229693898293       1.58502838676449
C         2.09184869019473      -0.05527555178699       0.44227517212975
C         3.37544043537914       0.10284556787513      -0.38393266371367
C         4.54595457607711      -0.63012956440734       0.26561049667707
H        -1.02745535246130       1.13129497578184      -1.69438222662729
H        -1.18019107833947       2.22132911870791      -0.27592428540283
H        -0.05150948336937      -1.76463078383936       0.36054646225527
H        -0.29302447254794      -1.21030033468077      -1.31642227699537
H         1.05755432585599       1.77448800968600      -0.07394079113365
H         1.04256937249092       0.51003538100248      -1.34019462043130
H        -3.37224888401443       1.50300441372251      -1.18292314734661
H        -3.18691492891435       0.91331778990444       0.47356788771390
H        -2.46897796786958      -1.56139897150702       0.82984908562845
H        -2.18235790133911      -2.56894429770623      -0.59463450989724
H        -4.03800911024454      -0.91650872836732      -0.98109938575948
H        -2.66957944422568      -0.67582187781331      -2.09631718625734
H        -1.65350659639805       0.25398392558165       1.84837230518282
H         0.03945640884994      -0.20863055306753       2.11688871544612
H        -0.38481210703830       1.50158554488961       1.85014375188007
H         1.85753133326232      -1.11997896080214       0.51168055444726
H         2.24123825521306       0.32544962954703       1.45824347461163
H         3.61699396453340       1.16610359941896      -0.48524408311955
H         3.19331726991956      -0.30250622163788      -1.38462266446212
H         4.32768718226878      -1.69516297774847       0.35428424292965
H         4.74692133166808      -0.23220321463890       1.26192684239660
H         5.44149437879095      -0.50953809226206      -0.34377070612999
C         0.65681131509111      -0.82896800053673      -5.04052473334362
C         0.36129571304239      -0.59886334298612      -3.54247701139205
O        -0.75390576671434      -0.10529056981692      -3.26043268816586
O         1.25039545657918      -0.92549035298690      -2.72532194628308
H        -0.00265870526197      -1.61413506800732      -5.40868028178947
H         0.44883890506086       0.08555971372696      -5.59375390226202
H         1.69383279045888      -1.12581161349268      -5.18307511636066
