60
C16H36F6NP optimized with DFTB in AMS.
N         0.51703129833152      -0.04787654971606      -0.37567955757582
C         1.35768516195000      -1.11054854195965       0.28353324718692
C        -0.01509312910562       0.86561118521410       0.70202693534654
C        -0.59006757309895      -0.70486495595947      -1.14873099110085
C         1.33361684828109       0.77922369815150      -1.33792868738546
C         2.57907347924879      -0.58730873505869       1.03879456604869
C        -0.99552897214718       1.93530820744390       0.23154973481404
C        -1.60115596502236      -1.49070066155954      -0.31584181752179
C         2.17228975305183       0.00382616507156      -2.34790216739911
C         3.50506073092763      -1.75436277995239       1.39806714254381
C        -1.27476480046404       2.88933741660070       1.40118600049472
C        -2.68190374098956      -2.06250945257018      -1.24272701237052
C         2.98702165182131       1.01682082859986      -3.16554293420901
C         4.72112929563586      -1.25023399108858       2.17283828921320
C        -2.26352265092537       3.97841580550043       0.99411578138371
C        -3.71796326233753      -2.85805365137602      -0.45189266196929
C         3.89082342660211       0.31130097784275      -4.17283002510760
H         1.66152750178713      -1.80903248387401      -0.50012093519624
H         0.70594924082074      -1.64511090760256       0.97846157727989
H         0.85514282277496       1.35185308694287       1.14148798804961
H        -0.47953388711592       0.23285118786419       1.46206904649351
H        -0.11769509657572      -1.37375008375402      -1.87246728887512
H        -1.10554716968545       0.08505570806336      -1.70016804356116
H         1.98462913251335       1.40903885894237      -0.73564987082395
H         0.63416993961575       1.42689884319031      -1.86932919929102
H         2.26493599750087      -0.08421463661591       1.95547035685778
H         3.13410191028209       0.13611075258660       0.44070771313032
H        -1.93285045276804       1.48685468953854      -0.11207075307081
H        -0.56577939509356       2.51225486756298      -0.58948285215718
H        -2.07475597796892      -0.84458252287582       0.42685943471683
H        -1.11166101116132      -2.31333439206246       0.21165975711192
H         1.54079048715296      -0.58963175105526      -3.01653542631832
H         2.86575536504065      -0.67339135118395      -1.84368764829156
H         3.83529385581158      -2.25508843303368       0.48104470416794
H         2.95862783353762      -2.48691720724546       2.00245407238924
H        -0.33391599690956       3.35072457419117       1.71399897239112
H        -1.67618156045268       2.32297866544975       2.24842174860739
H        -2.21397395077020      -2.71123518151940      -1.99052326105103
H        -3.17682260503150      -1.24191751151388      -1.77231154481795
H         3.59507099227656       1.61668704092135      -2.48204213959760
H         2.30476095349975       1.69188525076011      -3.69182594587277
H         4.40859375885803      -0.76841894170931       3.09943985452316
H         5.27706340495086      -0.52640909713598       1.57685713761285
H         5.37948412150624      -2.08401735589907       2.41631961975306
H        -3.21406355327382       3.54160547454394       0.68278858190071
H        -1.86226946345179       4.56609372630294       0.16793620639985
H        -2.44566274483105       4.64434753776335       1.83722978309667
H        -4.20660384691850      -2.22125564285179       0.28630029481376
H        -3.24512161336900      -3.69284567285347       0.06663554080958
H        -4.47617008059064      -3.25249211186215      -1.12783536159009
H         3.29968739639669      -0.28563507665927      -4.86931082434698
H         4.59418795160915      -0.34638845173210      -3.66051625785858
H         4.45646682596860       1.04957047208364      -4.74064395581019
P         3.04825548937767       3.48668308799155       0.90797312811422
F         4.44552029873545       3.54351059370932       1.73584248463230
F         3.54063757464632       4.64326901560207      -0.12396540096331
F         3.69166387580374       2.30922428793195      -0.10402954514402
F         1.60031390082217       3.35016001021947       0.05565342042038
F         2.50517495991299       2.24973534104827       1.90521517132718
F         2.34991578990637       4.58108723814518       1.89316865304648
