43
C11H24F6NP optimized with DFTB in AMS.
N         0.42056383032859       0.62799817022611      -0.01125229204820
C        -0.76918989013431       1.29084041838775       0.61797933987732
C         0.09936588857872       0.33097431316185      -1.45057207989431
C         0.77102229903350      -0.61588766947596       0.75595495300489
C         1.57106727642837       1.60422996673660      -0.01988795877335
C        -2.05661093418785       0.48414740342220       0.48021752909234
C        -1.15191667366632      -0.51576141926061      -1.62127269759731
C        -2.35787129813253       0.17150540055881      -0.98450972779303
C         2.01146754075634      -1.35712567742895       0.25820909730754
C         2.10127491821671       2.02248084867803       1.34748597181783
C         2.24137570566417      -2.59079079746313       1.12931463890285
C         3.21889593500656       3.04594297430377       1.13424697275118
H        -0.54200164484568       1.45515568457328       1.67298511703558
H        -0.88488394240745       2.26020399618559       0.12567375051229
H        -0.03329598625747       1.29608585190217      -1.94428979092487
H         0.96666549950909      -0.15792464987397      -1.89148143426749
H         0.90526657576343      -0.31661258918068       1.79861281290834
H        -0.09108745591164      -1.28385603120114       0.70839870602834
H         2.37187507686100       1.14341560554069      -0.59519595293689
H         1.22762920831134       2.48192302204631      -0.57163002904237
H        -1.99341467099237      -0.44169490798744       1.05854853572333
H        -2.86386136192936       1.08530114022649       0.90729498013722
H        -1.31708748004754      -0.63624650183140      -2.69477338472484
H        -1.01392282273188      -1.51266909796883      -1.19389509547528
H        -3.23710613774693      -0.47351412006281      -1.05004757387030
H        -2.57525795391794       1.10109262831988      -1.52004812981516
H         1.88084694828454      -1.66765878502401      -0.77954405430751
H         2.89180217733048      -0.71405955097111       0.30461255829760
H         1.31220075846219       2.46727383794772       1.96153176507140
H         2.50597307262107       1.16057339992167       1.88489367594100
H         3.12579657325919      -3.12083553094440       0.77867090400485
H         1.38645062072862      -3.26624697170023       1.07608952411658
H         2.39668657487890      -2.30482777736528       2.17044159344381
H         3.65633281887980       3.31776293243658       2.09431652742063
H         2.82539597666251       3.94468235970526       0.65953562771646
H         3.99600211524094       2.62724301676501       0.49556522784277
P         3.51559785994745       1.18117249075235      -3.12015311460211
F         3.94783315812990       2.48205587931212      -3.98821785748369
F         4.95410458442524       0.46198555831120      -3.35370011569440
F         4.07930824287374       1.89433534325945      -1.72523251061322
F         3.02232528724682      -0.13707951079499      -2.17293111188400
F         2.01473259686326       1.88181645670872      -2.80830561287071
F         2.87589826101680       0.44508780804530      -4.42982769693513
