34
C10H22ClN optimized with ForceField in AMS.
N        -0.10518190050274       0.03670539753985      -0.06241863538794
C        -1.00945150161091       0.54210018468595      -1.14637360006492
C        -0.61464424305486      -1.29314340397121       0.40765390030324
C         1.24614644654639      -0.16048018732650      -0.69185044942990
C        -2.48993822302386       0.62999870679336      -0.74014987192162
C        -2.09608068098280      -1.28395356308898       0.83760645439396
C        -0.03778016760821       0.98883137568821       1.10030515186773
C        -2.99548842957171      -0.72701020483483      -0.26184720323180
C         2.37586765889349      -0.62010181511466       0.26246086489381
C         0.55921360464107       2.37521500217027       0.79581842702618
C         3.67770994744294      -0.83881017210571      -0.50565502712140
H        -0.95869840818471      -0.13433900394275      -2.03191976611861
H        -0.68243465290817       1.53464933556827      -1.51983409019944
H        -0.03124195330245      -1.65702937778085       1.28049630776335
H        -0.50405314696333      -2.05877164508590      -0.39464687329380
H         1.57798550853805       0.77292658935385      -1.19884706542596
H         1.17427102954021      -0.91583097213463      -1.50648001200722
H        -3.08736537941914       0.94063571971594      -1.62460709289115
H        -2.64859762079131       1.40288147805610       0.03954852418342
H        -2.23316683332065      -0.70350401012807       1.77360502172055
H        -2.41156725670550      -2.32650266990150       1.05987948420182
H        -1.04105738561108       1.16683589831827       1.53295331932838
H         0.54594289201708       0.54265145635366       1.93436342219984
H        -4.03186665755876      -0.62038552518862       0.12560817745351
H        -3.02005441652757      -1.43790039631859      -1.11717012288851
H         2.57242800818066       0.14397270898864       1.04148768890405
H         2.11414441782544      -1.57661691046696       0.75724353092548
H         0.56514282182558       2.97364888529868       1.73131630731358
H         1.60880525422042       2.30977163510253       0.44775270513459
H        -0.05219387838841       2.93292009361641       0.05959060348026
H         4.47805654427134      -1.15189043714107       0.19789311823420
H         3.54744174242623      -1.63517937628203      -1.26939050214986
H         3.99450647978137       0.10092780050078      -1.00636221123476
Cl        1.01922431748587      -2.85135641623796      -3.71355783026107
