34
C10H22ClN optimized with DFTB in AMS.
N        -0.43643998248214       0.41465762271233       0.18384093601395
C        -1.48168200859423       1.25209581380971      -0.49304587175100
C        -0.76822139497543      -1.04103131394830       0.01768948335936
C         0.86776091053498       0.71664804631215      -0.51124940477601
C        -2.89901902648323       0.94750499426648      -0.01846413257055
C        -2.16378799831083      -1.37657645532689       0.51937133931219
C        -3.22378856013219      -0.53590847115424      -0.18802205079679
C        -0.33037978065761       0.78095021513532       1.62450650751774
C         2.08633458055316      -0.03745194352654       0.01421087225050
C         3.32496731695354       0.39692963429177      -0.77823477443832
C         4.54861409321391      -0.41077713631120      -0.35127377923796
H        -1.40391335188139       1.05458750416592      -1.56599213787936
H        -1.23060509927389       2.29936607746156      -0.30739497972779
H        -0.02870301160440      -1.60759393523056       0.59645851499780
H        -0.67572650670398      -1.27051013460802      -1.04742416434040
H         1.02461241536592       1.79561492426603      -0.41570858026448
H         0.71775589329043       0.48385994277644      -1.56990901468860
H        -3.58161564154169       1.55381384439248      -0.62005876135145
H        -3.02733312900597       1.24331679418472       1.02583836827215
H        -2.22117712010240      -1.23010979673227       1.60063218072734
H        -2.33466013078050      -2.43715899231339       0.31971846835509
H        -4.21039490216931      -0.74510082374269       0.23168615045684
H        -3.24569904341908      -0.78701512133212      -1.25370877350757
H        -1.31707471085145       0.75969942861648       2.07812934888755
H         0.30621901311406       0.04401551258866       2.12433677208121
H         0.09003531252372       1.78166113082334       1.70184550192170
H         1.94655913898907      -1.11444860283960      -0.09422244674628
H         2.24105871333998       0.17130869135327       1.07369473662776
H         3.51080021673820       1.46389171476072      -0.61239485392895
H         3.14429257905449       0.25215631851177      -1.84950566414976
H         4.38060617824610      -1.47446863171232      -0.52076043330258
H         4.75414992093615      -0.25761105848444       0.70811718806998
H         5.42026489969509      -0.09823940122020      -0.92626062447594
Cl        1.11214327572089      -1.96306795654640       2.43229205988265
