41
C11H22F3NO3S optimized with DFTB in AMS.
N        -2.23750512651081      -0.38663547835953      -0.03201015594002
C        -2.06744974765315      -1.77975249799099      -0.54359517755746
C        -3.34037268353559      -0.50475643393468       0.97551644382151
C        -0.99744499898672       0.12652958775165       0.64506720585419
C        -3.48266313551634      -2.34663426644181      -0.62291303199179
C        -4.29802558241086      -1.54987497942896       0.41027800304427
C        -2.67078110652395       0.51897923114451      -1.13151971367817
C         0.11884608016760       0.51646793790490      -0.31601686344640
C         1.36260564969532       0.90090072717960       0.49394318892345
C         2.50156554848097       1.34643217484994      -0.42780248742093
C         3.73622522198757       1.75065545380567       0.37550250850578
H        -1.46498985934029      -2.33177932685453       0.18161963433115
H        -1.55009403717507      -1.76098661292602      -1.50285125231214
H        -3.79178875838263       0.47661181789987       1.12390466598666
H        -2.89657584120204      -0.83584879188054       1.91620045454125
H        -0.66383088606600      -0.65938829180506       1.32861945568697
H        -1.30052864614632       0.99511097161623       1.23231038044372
H        -3.47514917674013      -3.41378373473241      -0.39511023037457
H        -3.89523771045292      -2.21623368377203      -1.62551191618117
H        -5.15987702359374      -1.07444308000489      -0.06164833684076
H        -4.66516811646181      -2.19464248968139       1.21044746162562
H        -1.97361222399067       0.43842595894814      -1.96201247086353
H        -3.66687958522707       0.23122862261237      -1.45796179103458
H        -2.68160562132860       1.53793475223796      -0.74979321489984
H         0.35310914990634      -0.30938630131539      -0.99574455009912
H        -0.19153851012435       1.38191043274325      -0.90626628736061
H         1.68833802539680       0.04655412321990       1.09767261186419
H         1.10356993700847       1.71706082938638       1.17536719988451
H         2.16648370577633       2.19557126526322      -1.03209086663113
H         2.76005428348482       0.52951644114982      -1.11086698464220
H         3.50134330734304       2.58067029483387       1.04266968412378
H         4.53439393622067       2.06152587019840      -0.29878766947279
H         4.09427033343755       0.91281886976298       0.97571224716766
S        -2.53389958744348       3.34006906546921       1.41594937981214
O        -1.71634116575811       3.08358384985090       0.23303829506303
O        -2.18860899328567       4.51030999496826       2.17122283749278
O        -2.78878192212182       2.13185229908293       2.19701665048067
C        -4.20533818822999       3.67618873154345       0.67990961456018
F        -4.61265431005269       2.55392481952581       0.04629244293161
F        -4.18010602812829       4.65020317583768      -0.21796691923341
F        -5.11586071341644       3.96646139564131       1.59657504443552
