30
C8H8F6N2O4S2 optimized with ADF in AMS.
N         0.64379123840292       0.05949525038160       0.79489817222738
C         0.83535700281553       1.38066609755740       0.57377163465931
C         1.57114737425351      -0.84691219719174       0.41303334442271
C        -0.51151146412927      -0.38662337204452       1.59441776586929
C         1.96932891812474       1.82736105094855      -0.07037285451999
C         2.71136505537844      -0.44520246386393      -0.25633633806759
C         2.92260320038220       0.90564696713607      -0.49629336350739
H         0.06708434372317       2.04677858882394       0.95654015931190
H         1.36550830331722      -1.88238391513149       0.66909391408978
H        -0.80005717536313      -1.39106128972367       1.26594706254835
H        -0.20091634768570      -0.38685503378223       2.65408861041824
H        -1.33953932271270       0.31296032220089       1.44078677254341
H         2.10791044671312       2.89848696557444      -0.21055115731100
H         3.44349843110970      -1.19919209343810      -0.54244393031726
H         3.83290281540945       1.24243295835694      -0.99363729036745
N         1.27522619608949       0.42678231084842       4.16712521782208
S         1.00505800067109       1.74974221981262       5.06798536366019
S         2.69638403521998       0.08079388341518       3.49396750780910
C         0.31845436612753       2.99901311881650       3.82665896111857
C         3.94906058722832      -0.30270283081930       4.87938882062201
O        -0.15382435262356       1.48260914585192       5.90222323825941
O         2.20344670498641       2.38380680870702       5.59588738708967
O         3.31629313423752       1.14693226780351       2.70624691276485
O         2.50699828199458      -1.23300779225260       2.85898082942868
F        -0.10307916396620       4.10497751484130       4.47216118265238
F        -0.75598269216972       2.47098449860519       3.15252145615613
F         1.23588157067561       3.37003124683302       2.89672471057059
F         4.83743537526560      -1.20811439248865       4.39889396514863
F         3.32793002713071      -0.83342861928462       5.95278659028756
F         4.62178949979347       0.80000529250633       5.24680358361044
