35
C11H17F3N2O2 optimized with ADF in AMS.
N         1.08236734932428       0.54455385667313       0.30955642388948
N        -0.81907936854170       0.18184221619289      -0.65755362302587
C         2.38703353803407       0.27282020383264       0.93273507997597
C        -2.02528242372613      -0.55370904036384      -1.06243079998210
C         0.21294830751037      -0.41199219843980      -0.04240233627351
C         3.49486879828659       0.17572268183729      -0.11484018656141
C        -3.13773013520776      -0.40744929023029      -0.02599091621777
C         0.59722892956475       1.77403601756752      -0.09820723475376
C        -0.61071818930263       1.54659887169024      -0.69611263126874
C         3.27405807750165      -0.97695339570237      -1.09098088179493
C        -2.72340980993465      -0.91015695451002       1.35498019106817
H         2.27080878060723      -0.68939064473169       1.45922359136616
H         2.57432234536874       1.07863932425844       1.65857493751715
H        -1.71783407868178      -1.60755149185392      -1.14615610282951
H        -2.32610452044389      -0.18370199723887      -2.05434915674268
H         0.25453043749797      -1.50942840702775       0.14405792214972
H         3.58966868494593       1.13656294556706      -0.65324166594300
H         4.43811082221782       0.02812422356269       0.43944701136294
H        -3.46520856381265       0.64693532860344       0.02102375619802
H        -3.99634464975795      -0.98970331645013      -0.40251029691249
H         1.14453139768693       2.69393555563476       0.07008118031619
H        -1.32485325924396       2.22951083607803      -1.13993657410181
H         2.40245810911934      -0.79142060649237      -1.73862366433180
H         3.09504310632602      -1.91652530677733      -0.54380050962863
H         4.14865677065454      -1.10555585569657      -1.74572999661817
H        -1.94148860683981      -0.27115302621447       1.79531705976667
H        -2.32418571959798      -1.93542692800859       1.29510325051925
H        -3.58153846796682      -0.90062392745350       2.04287917483697
C         0.58117701741519      -3.51201763096100       1.03962915505426
O         1.57984857184924      -2.84619499799632       1.39596046586520
O        -0.37328185443532      -3.18274611642205       0.27860182026190
C         0.49227401787529      -4.97537020409584       1.58219079956382
F         1.27364115282854      -5.18426264812493       2.67744506690153
F         0.90101179141714      -5.86581721912378       0.61899931965008
F        -0.78437848643860      -5.32252649568271       1.93106716372269
