55
C15H20F18NP optimized with ADF in AMS.
N         0.98305116914989      -0.46826994480148      -0.44675068412189
C        -0.30580374836821       0.04258083887345      -1.05325589661641
C         0.65758590412488      -1.21519380021809       0.83281232052604
C        -1.08236733893525       0.93762700205379      -0.10357854729921
C        -0.16902442334847      -0.39852184138077       1.81663933181279
C         1.94270245301255       0.67798684991987      -0.12338280115820
C         1.63152920308335      -1.41884105972226      -1.46412396777621
C        -1.43046647168753       0.17837151919535       1.17688546151063
C         2.14167828878162       1.68934842605738      -1.23034024606343
C         2.56987318509437      -2.46408712100812      -0.89708050255795
H        -0.89952349724782      -0.85389688113247      -1.29366441501732
H        -0.04088347854868       0.54161825341976      -1.99547834975336
H         1.61630625389834      -1.51576791749804       1.27614834766100
H         0.10886630689787      -2.11863737586138       0.52223010034105
H        -1.99536563408596       1.26515879240878      -0.62718333021087
H        -0.50945884075937       1.85126679422056       0.12647302881833
H         0.44380716421758       0.40270455632174       2.26025266150737
H        -0.42615614544887      -1.07335712164601       2.65012710701738
H         1.55837669928141       1.16660431010930       0.77847692583781
H         2.88786034980545       0.19758380130259       0.13990546364887
H         0.79571332286764      -1.90023903048673      -1.99397354389113
H         2.16106269884276      -0.76998949344903      -2.17396059834310
H        -1.95313573128596       0.83616820999960       1.88883851195050
H        -2.12795372126256      -0.64323818162060       0.93019320939992
H         2.92458150990882       2.38213246773065      -0.88790609181340
H         2.52449086589882       1.24587896972633      -2.15959338944482
H         1.23776795377387       2.27878676161872      -1.44204024307566
H         3.06458758506244      -2.94884641641084      -1.75318431504554
H         3.37159779946633      -2.04019682373351      -0.28372940317845
H         2.04134968841292      -3.24370261846885      -0.33184183673452
P         7.10846746491498       0.39957848326819      -0.09399266866480
F         8.20406154534801      -0.00825162977125      -1.27505655239745
F         7.35623868526740       2.01922580539478      -0.37773322503954
F         6.75188426937650      -1.20380755658206       0.23363809297621
C         5.74206798588562       0.34773497000176      -1.54718330055493
C         8.61945687398041       0.27857243126774       1.16901829356407
C         5.76229539896900       1.00907208025750       1.29572323473391
C         6.06327259056008      -0.42075134474735      -2.86762294262173
C         9.63978519822467       1.45396257546718       1.21883280968810
C         5.00097756959450       0.02108392244780       2.23850224880772
F         5.34820878032111       1.59777209909933      -1.97074600898511
F         4.58533733551714      -0.29901346623353      -1.09605240701710
F         9.35876292147845      -0.83638572706692       0.84266730831945
F         8.20969949494183       0.09056161712275       2.47263848542371
F         4.73781742184261       1.71015004756101       0.65390452310325
F         6.34094844421695       1.91962830352515       2.14448847582328
F         4.90639240606614      -0.48234673702235      -3.62507059977676
F         6.44429080105010      -1.69437223208556      -2.63707369635304
F         6.98500617315720       0.20370884757813      -3.62085933848750
F        10.67282238932671       1.11497256604997       2.04515883365556
F        10.15939782542222       1.72151422085742       0.00034095143905
F         9.08094196302430       2.58378476244305       1.71435957579041
F         4.03838355718925       0.71061581133438       2.93725921048421
F         5.79552368508240      -0.58299601477861       3.13066038308640
F         4.33251253704017      -0.95424396900822       1.54882352327242
