61
C17H24F18NP optimized with ADF in AMS.
N         0.01953934504052      -1.64595477642240      -0.11215092423602
C        -0.01224205088212      -2.77887158310190      -1.13089392406602
C        -0.12015965480186      -2.38201088276887       1.21468102808484
C         1.33479476428531      -0.89489542917477      -0.15293820905199
C        -1.06605721486450      -3.74251985641894      -0.60655145891120
C        -0.97957957824691      -3.62213965770156       0.93335099021988
C        -1.17083844380743      -0.73715279872116      -0.34748077584537
C         1.61035264753099      -0.16850077459012      -1.45571705115425
C        -1.21923008400907       0.49645627429720       0.53195191476400
C         3.02265614951344       0.42197310771342      -1.42532199170516
C         3.44242425962233       1.01646595513646      -2.76735266908531
C         4.88051872360435       1.52552006337695      -2.74371572050832
H        -0.21633196841412      -2.36374484869590      -2.12536009345276
H         0.98247316745710      -3.24042503882535      -1.10473984012476
H         0.89374957730908      -2.66745104590496       1.51257657360635
H        -0.53538711638380      -1.69119653337889       1.95811135276540
H         1.33232151838392      -0.20791706618590       0.70680517157970
H         2.10571268813752      -1.65475666560269       0.02773839919850
H        -2.07035843913574      -3.48034158743748      -0.97350805177604
H        -0.83951447976969      -4.76119667762200      -0.95006310739503
H        -0.47950887500240      -4.50178165869052       1.36274525799642
H        -1.97853159470683      -3.54234829835373       1.38544116948657
H        -2.06158753564953      -1.36241036702621      -0.19217890023746
H        -1.13695795657037      -0.45543993366398      -1.40991580002521
H         0.87633273037022       0.63547134023194      -1.64025193850249
H         1.54891738502238      -0.87632036944613      -2.29906913005465
H        -1.20437647850078       0.25484848544446       1.60432137372867
H        -0.40007962560917       1.19540750318603       0.31596607055777
H        -2.16583809149199       1.02096889231169       0.32963355327333
H         3.73693287418596      -0.37100622160480      -1.14713066031171
H         3.08678618334923       1.19558492651357      -0.63688008623645
H         3.34102211235709       0.23880649460649      -3.54611390118884
H         2.75282567080473       1.83572538486248      -3.04454468032094
H         5.17474494711630       1.94824270480528      -3.71594206788625
H         5.01104665550811       2.30869852155645      -1.97981329251237
H         5.57553317254396       0.70460166482431      -2.50670130847446
P         3.64148879966491      -4.99046426741892       0.30015217456104
F         3.12174185716229      -5.46429832031317      -1.21452599412213
F         4.84878517796713      -6.11109975213868       0.28975730701941
F         2.40261507999723      -3.80351874950350       0.37646937440323
C         4.77426146816015      -3.65389215561395      -0.64302198520302
C         2.29065126015692      -6.28555144090796       0.96365815687794
C         4.29110175966724      -4.42649581401451       2.11969045287057
C         4.47168604173191      -3.34904183087593      -2.14978506801997
C         2.63303790491237      -7.80525713819276       0.90999219060930
C         3.56943356851987      -3.33935022976301       2.98328126156900
F         6.09898749442345      -4.00554880081282      -0.63718227374044
F         4.67501964807130      -2.41484295575362      -0.02352296528266
F         1.14090928324901      -6.15094447814269       0.19230047474415
F         1.88280873996211      -6.03525558140271       2.25501232947849
F         5.58326460242584      -3.96026947030545       2.00098150380028
F         4.35847421234288      -5.53842524269194       2.92788763948090
F         5.22294559637451      -2.27780699319464      -2.54707873687801
F         3.16656389779246      -3.00148942773257      -2.35850627371665
F         4.78020842818661      -4.37756705794931      -2.95763558604325
F         3.00090226714044      -8.19051929948533      -0.33062450138243
F         3.61462779751886      -8.12358945285280       1.78076498036228
F         1.52438165777429      -8.52637848028822       1.25622662533338
F         3.51936221383639      -2.12905743605746       2.36385418269278
F         4.24667104573453      -3.16742080464830       4.14903726385081
F         2.29348126433106      -3.67972248056819       3.30365241283661
