48
C12H22F6N2O4S2 optimized with ADF in AMS.
N        -0.13262237441383      -0.10510662512209      -0.36647285918359
C        -1.03728285152393       0.24411606969136      -1.54108845740660
C        -0.22557385326719      -1.59729264202204      -0.08496087122939
C         1.28624843683426       0.27808390918697      -0.78679292448894
C        -2.47453852509670      -0.20263491602496      -1.34526895557519
C        -1.65691828552374      -2.08243369725417       0.08778991545952
C        -2.52861492463515      -1.71152712384590      -1.11076412778526
C        -0.51495999848515       0.67537143461168       0.84702171186749
C         2.41317378535680      -0.23373144893975       0.08782171322395
C         3.74578301798637       0.25852947902547      -0.49332821226227
C         4.94123311322374      -0.31555997530343       0.26101108601787
H        -0.60766399487397      -0.28177347102746      -2.40564896299556
H        -0.93937769046312       1.32820526568271      -1.69833560248607
H         0.37593286528046      -1.78528723442686       0.81494600784595
H         0.26222892938592      -2.09676952556289      -0.93419030224849
H         1.28509975317256       1.37902268553966      -0.84065729782761
H         1.42468596708636      -0.10539283976308      -1.80599725469591
H        -3.01717380046188       0.06889499007844      -2.26592281195806
H        -2.96359040717639       0.34591511882270      -0.52128763364174
H        -2.09970881507731      -1.69711657366501       1.02346202294949
H        -1.60045864822078      -3.17761559975280       0.20198857359438
H        -3.56592351641508      -2.04259772550095      -0.94853469952238
H        -2.14611610393907      -2.22565942876599      -2.00971455810072
H        -1.52667080149067       0.40272928311793       1.16198220703721
H         0.19699839332330       0.44552750219955       1.64823689982499
H        -0.47407587271764       1.74464491307040       0.60292271931640
H         2.42464426518784      -1.33500562244796       0.07195033934433
H         2.31935949362645       0.10425758572792       1.13547428437631
H         3.77697513898750       1.36259717399994      -0.46468306443018
H         3.79472669784252      -0.03726621098424      -1.55574549754212
H         4.95026828527245      -1.41491742604310       0.19689944577487
H         4.91845240935468      -0.03516672326257       1.32671588287938
H         5.88590567417704       0.05299919003788      -0.16599702816868
N         2.31609646951830      -0.99649861905531      -3.74026070820177
S         1.45756750462981      -2.31466250931105      -3.43010512542441
S         2.28549816469496      -0.17602635466486      -5.14099470015572
C         1.98902362423351      -3.72020147719381      -4.60196764387808
C         0.79989811654341       0.98459800656363      -4.99352649968009
O         1.91189802788700      -2.78389377244804      -2.11486504916668
O         0.00761959344539      -2.19235789401677      -3.63451542707267
O         1.99500273496725      -0.98768967972424      -6.31305166054813
O         3.40749384474880       0.74644108382221      -5.10865398113225
F         1.75472557057818      -4.89373072859185      -3.96214292631703
F         3.30529657280746      -3.63468781524573      -4.88226757158987
F         1.28159437243186      -3.70972916838867      -5.74356802510869
F         0.83452401296751       1.88633419021393      -5.99933095094504
F         0.83893204275998       1.67072243410250      -3.80913022319760
F        -0.38149100583008       0.32614250986069      -5.04921893744536
