45
C11H24F2N2O4S2 optimized with ForceField in AMS.
N        -1.38676604727700       0.17535617560963      -0.06924181046439
C        -1.65651126109427      -1.02519947457464      -0.91980827969272
C        -2.48907247400005       0.18982440293390       0.94098351385906
C        -0.06999062607628       0.02686677371802       0.63300828577492
C        -3.02239742222020      -1.57550160761739      -0.55270422824033
C        -3.21459552935919      -1.13951460778632       0.87230703153194
C        -1.44514083722852       1.41181489541371      -0.91458273280070
C         1.16373696603132       0.02932793905883      -0.30352854557963
C        -1.16942695270172       2.72090774890117      -0.15163728028251
C         2.43525830826865      -0.34156476051423       0.47046294178041
C         3.66697737373527      -0.31941075541819      -0.44258771035366
C         4.93097583523680      -0.68016942629358       0.33124058578256
H        -1.61905758117606      -0.80813548569150      -2.01208263059777
H        -0.92167488310333      -1.84360542777471      -0.74086228533813
H        -2.13205857445431       0.37352516551570       1.98026878858498
H        -3.24556644963687       0.98006066555510       0.72741853348418
H         0.06500809562392       0.83654454615374       1.38405263637397
H        -0.06878356155196      -0.92193243125492       1.21862817837346
H        -3.80256444566590      -1.11399044967238      -1.19788787703903
H        -3.06538971273526      -2.68277545377679      -0.64871022565578
H        -2.73400829609048      -1.86951965447173       1.56082707041539
H        -4.29285094604523      -1.03951609979163       1.12620162282086
H        -2.45029238074098       1.49901056126703      -1.38814782113182
H        -0.72679035566644       1.34653472598762      -1.76084465678009
H         1.30540465066049       1.03995682066070      -0.74042423436371
H         1.02759881448740      -0.69146470562148      -1.13658717630750
H        -1.81998353396048       2.82118483896496       0.74065898056925
H        -0.10811292115382       2.78793726497536       0.16195390823959
H        -1.37238184039870       3.58217113666643      -0.82216395263787
H         2.31984614508455      -1.35951180225175       0.90389860831252
H         2.58226564014876       0.38201085878540       1.30256013801671
H         3.53315805747698      -1.04746274353660      -1.27243087632341
H         3.79174297029485       0.69478990546806      -0.88104189621131
H         5.80539914517583      -0.63844766527301      -0.35038091010446
H         5.09444347100514       0.03850015193916       1.16248973763546
H         4.85032710188864      -1.70802414512911       0.74527535923791
N        10.14599364212757      -0.26774489078956      -2.09679164736404
S         9.46697676456297      -0.23932401082847      -3.58503056370390
S         9.25319787593076      -0.01557254283572      -0.74941275009639
F         9.22030299416054       1.35212963857299      -4.04229308192805
F         8.33941902879181      -1.38275537288280      -0.43744560202061
O        10.38688424519664      -0.90321895077495      -4.56917794608274
O         8.14447386239980      -0.95314461437722      -3.56448308842261
O         8.33243114460168       1.15486706867321      -0.95249153821009
O        10.16399686144671       0.25127653581795       0.41443723934010
