43
C13H28ClN optimized with ForceField in AMS.
N        -1.54805376312048       0.10361724123177      -0.04755237391826
C        -2.57942769761487       0.50188880766408      -1.06103825906728
C        -1.78471901485223      -1.32371749193464       0.34791224955270
C        -0.21437052543241       0.19660373592876      -0.73647039385221
C        -1.60147126727725       0.97988494329500       1.17543596056677
C        -4.03101823937157       0.28680063328937      -0.60064516634695
C        -3.22135092831231      -1.61268032224915       0.82727780165223
C        -4.25410954164985      -1.16906642994082      -0.20507924870406
C         1.02341870407494      -0.12120690902189       0.14026552289957
C        -1.25541795581717       2.46296304446322       0.94919679931399
C         2.31376677906617       0.03716448236111      -0.67556547904880
C         3.55096152996426      -0.30209241799332       0.16605007407053
C         4.83571050032552      -0.10846898711107      -0.64826258752583
C         6.07223065334249      -0.46662034939771       0.17207980954974
H        -2.44988368649856      -0.09600807888937      -1.99352013984216
H        -2.45663215492234       1.55909346780712      -1.37542425409265
H        -1.10340080685657      -1.62702823842957       1.17164442362992
H        -1.57436290817283      -2.00632707605360      -0.50753288523349
H        -0.07884356243557       1.20684619133086      -1.18341552252191
H        -0.18686957415893      -0.50140940693914      -1.60541664972100
H        -2.60406586922472       0.95892927594928       1.64495485939375
H        -0.92718130665820       0.58819070640668       1.96793369924211
H        -4.71471833801660       0.53690081694223      -1.44106129708480
H        -4.29468862273172       0.96431979062166       0.23739333396316
H        -3.41929056305894      -1.12068556473313       1.80232487469365
H        -3.33003212898254      -2.70679782042946       0.99288480834425
H        -5.27508171298963      -1.28647813113592       0.21754383804930
H        -4.17843768235337      -1.81489637489447      -1.10794519602499
H         1.08081174921902       0.56882289025550       1.00656568426758
H         0.97348704435768      -1.16500592505364       0.51324751606904
H        -0.21882354052992       2.59743213824533       0.58113240761560
H        -1.97026176536375       2.95171717247254       0.25806421127567
H        -1.32653183158737       2.99622201989916       1.92046823149683
H         2.39118148597820       1.08720058820490      -1.03562622258942
H         2.27688664854225      -0.63726788135624      -1.56005327968324
H         3.48464031017561      -1.35929615058630       0.50676566975487
H         3.58075324054774       0.35671399805322       1.06226423215866
H         4.80699524182373      -0.75335297874456      -1.55380694090094
H         4.91588204853320       0.95196171442721      -0.97375327402590
H         6.03404989628860      -1.53264007113439       0.48267022797487
H         6.98324269724389      -0.30892760595199      -0.44315025257461
H         6.13756339177305       0.17772379753167       1.07477919054325
Cl       -1.01443343526665      -0.50450393800024      -4.68579721121953
