45
C11H24F2N2O4S2 optimized with ADF in AMS.
N         2.53868557999988      -0.48942883645150      -0.23969962848154
C         2.52127303406214      -1.92649892239570       0.24699170212169
C         3.61438176257746      -0.48953485092142      -1.33987448773903
C         1.21347943723266      -0.05482225684844      -0.81996061513018
C         3.98394002661248      -2.33280172525034       0.23538766064685
C         4.52693979479023      -1.69162614023307      -1.05505017964589
C         2.94708313366767       0.42595409641070       0.87836100009035
C         0.05391032382654      -0.02948960208725       0.16222165505576
C        -1.25413311211367       0.30123329613765      -0.56247137678627
C        -2.45144947021648       0.35676939351966       0.38528089047113
C        -3.76485248132246       0.67375833839224      -0.32760364591207
C        -4.95550298944662       0.72318810298407       0.62690075305809
H         1.94118736963596      -2.49884308421864      -0.49453470126180
H         2.02624196219990      -1.97464592477015       1.22507640623119
H         4.13347225170885       0.47687517254482      -1.30360456528878
H         3.07943129314063      -0.58839173003088      -2.29440753054587
H         1.00283108352787      -0.75412494356288      -1.64438120696487
H         1.38831019261729       0.94335435515164      -1.25188377096020
H         4.09023482153434      -3.42671314639904       0.24246822675960
H         4.51199073435143      -1.94343019548558       1.11856395815008
H         5.57207193369459      -1.37759716460528      -0.93295079908545
H         4.46882940299309      -2.40574290932460      -1.89054587054791
H         2.24238572812084       0.30723768699437       1.70896639796076
H         3.96014127264525       0.16949672451092       1.20431230518568
H         2.94164642215405       1.45595893183791       0.50072560530065
H        -0.04985121482677      -1.00879075230903       0.66009378247597
H         0.22841102961437       0.72428821422444       0.94625727217416
H        -1.44320583271338      -0.45511962547523      -1.34657183207543
H        -1.15205788974902       1.27246187167852      -1.08090833902005
H        -2.26555534284575       1.11855532771608       1.16503232128090
H        -2.54676879292925      -0.61146384156440       0.91245408094845
H        -3.66753649434959       1.64182034719171      -0.85200726411271
H        -3.94608323306232      -0.08589457571203      -1.10955079687756
H        -4.80881429714417       1.49365456924767       1.40041214765935
H        -5.89000609761129       0.95590741104300       0.09395779974272
H        -5.09163362465477      -0.24326008198914       1.13845146093466
N         6.10583501259326       1.05354497856272      -0.01656090550383
S         7.03781489015930       0.33831442251277       1.08472140459407
S         5.57420752463394       2.56078542162579       0.18590257193774
F         5.89992883317451      -0.09347208614627       2.25937136791075
F         6.86481349699462       3.48777932738293      -0.21316281308951
O         7.42305529553993      -0.95003797727986       0.53686659568590
O         7.97568520109120       1.17514184468932       1.79813969292830
O         5.23996041581209       2.94325532132098       1.54529847638511
O         4.60982931707914       2.79339834408080      -0.88373364036095
