34
C8H15F2N3O4S2 optimized with DFTB in AMS.
N         0.18202278156545      -0.85206439535650      -0.67666259598673
N         1.96670983777831      -0.43186071428389       0.45272223852485
C        -1.16585169513041      -0.75106163438468      -1.22810414384023
C        -1.21078560970321       0.24442495610065      -2.39240770471379
C         0.70656086287306      -0.04842927137927       0.24667633093490
C         1.13559325538608      -1.73573072523363      -1.09740842105935
C         2.91323907161758       0.22967303371231       1.34558196727883
C         2.26155597242822      -1.47216121916724      -0.38432680220585
C        -1.12676824049817       1.69548206490591      -1.93190458800561
C         3.74002078122968       1.25632366902890       0.57861369438927
H        -1.84075808543369      -0.44901252164172      -0.42138392563436
H        -1.44755120316550      -1.74877885235844      -1.57351334563733
H        -0.38785695748869       0.02570918408100      -3.07423338331867
H        -2.15155406325134       0.08020866881970      -2.92493340865061
H         0.19527402786180       0.74517890633548       0.76266267716692
H         0.94581245083855      -2.45681348881578      -1.87220984026854
H         2.33985149683491       0.70600190540636       2.14613426928366
H         3.55561578297854      -0.54163944377062       1.77938049923276
H         3.23787910881998      -1.92124318061777      -0.41847707464343
H        -0.17701644272626       1.88497388525716      -1.43309434433783
H        -1.94191599976880       1.93563021436644      -1.24662615171207
H        -1.19125617454335       2.35143911235745      -2.79896734963744
H         4.33004152159886       0.76308204471477      -0.19043442609622
H         4.40830534085422       1.76394660672117       1.27262417947857
H         3.09058048823350       1.98946046045673       0.10358365222671
N         3.10420481370065       0.64886666016755      -4.37594056198788
S         1.92121763052022      -0.32226290968753      -4.82092311789305
S         3.17417887769854       1.00374928702768      -2.84362601295657
F         0.65403594517306       0.69913753801609      -4.92372228326830
F         3.87457408113350      -0.34188517441162      -2.17897448298665
O         2.15217704011275      -0.73177868118553      -6.16151360612528
O         1.48041472608812      -1.29552724697918      -3.86006010884424
O         1.93991491053765       1.09988744539739      -2.10655303363785
O         4.15816817964618       2.01303621700065      -2.63653664376864
