25
C7H10F6NP optimized with ForceField in AMS.
N         0.16540437223632       0.00018458849598      -0.38046453667560
C         1.61104903863691       0.00073924154551      -0.63403919424405
C        -0.50125361576955       1.18788421699849      -0.24636722835753
C        -0.49979314411639      -1.18826846626378      -0.24651514471099
C         2.37678642766956       0.00062147982724       0.68453714274346
C        -1.86908876131182       1.20457832685687       0.03432477322647
C        -1.86734208300056      -1.20673508091229       0.03433875284803
C        -2.55182493866631      -0.00171580196190       0.17987231690260
H         1.90242967695179      -0.89251717161957      -1.22965225174656
H         1.90190749483296       0.89425897036157      -1.22944754411733
H         0.02454246022859       2.13032918048411      -0.34558781258448
H         0.02693258053125      -2.13011571908150      -0.34596780115609
H         2.11948494019982       0.90559571538008       1.27525518829106
H         3.46865419989743       0.00070999547793       0.48425930157370
H         2.11966803159342      -0.90456535321398       1.27503774433758
H        -2.39317922992619       2.14514654104247       0.14584214870064
H        -2.39023052166325      -2.14788508849046       0.14590916686379
H        -3.60664415135171      -0.00363921820369       0.41278854301299
P        -7.07571679875776       0.94164890815839      -1.56600320349152
F        -8.16395354840648       1.42566037612972      -2.80388440604451
F        -5.77285012622516       1.70948719435972      -2.38154449031945
F        -7.39550315454029       2.39654437243235      -0.71012596846826
F        -6.01000581905925       0.45495406984849      -0.31190174574997
F        -8.36574679634079       0.16631467152713      -0.73771027453326
F        -6.74105037484253      -0.51583037767888      -2.41191223440074
