55
C15H20F18NP optimized with ForceField in AMS.
C         2.68071778612779       0.28027536492075       1.60548900263701
C         1.68127022920927       1.24073657536686       0.98228166358135
H         1.25404460753949      -0.96271449226147      -0.81044651957293
H         0.30606047502717      -1.70104029166515       0.52475579559623
H         3.11160355241991      -1.47475917767327       0.39587090433683
H         2.14938916715887      -1.80092472635143       1.89417650234347
H         2.57777933921039       0.29043580919048       2.71279813994714
H         3.72410111449153       0.55488862382591       1.33575208773273
H         1.44676521421926       2.07975521230102       1.67735713611284
H         2.16747156783995       1.68752457855685       0.08271281189044
H        -1.25865152947644      -0.33947768413382       1.60140099491316
C        -0.43244325135417       0.37991144686418       1.77965577169462
H         0.10501273799199       0.02635622952825       2.68711111006891
H        -0.87520924237633       1.37478632441178       2.00778523826539
C        -0.18762674253689       1.13077192474428      -0.55731690010776
H        -0.31045282095578       2.21452361405014      -0.32631403927491
H         0.46810281965485       1.09353949083503      -1.45726035034451
H        -2.30954545113980       0.68848516082429      -0.10984288362611
H        -2.92501977913778      -2.11583114947880      -2.66300017088647
C        -1.61184295346572      -0.79519327796259      -1.55366129004682
H        -0.77853436212809      -0.91560547046053      -2.27909979503282
H        -1.50534830550415      -1.54590347086256      -0.74650125412769
C        -2.92899159629591      -1.07622877369676      -2.27262507347136
H        -3.05983434475117      -0.37890255436467      -3.12742529712959
N         0.47710942583684       0.46047277527016       0.60699284544792
C         1.01414942989200      -0.88160253457414       0.27400545049248
C         2.30860247962579      -1.08378359585724       1.05887053272993
H        -3.78304887852237      -0.96265165299567      -1.57130124453614
C        -1.59566426310148       0.61898204454293      -0.95647817438933
H        -1.97648872632626       1.32316628244778      -1.72933245474191
P        -3.29535229525512      -4.68448361034379       3.74010982938686
F        -4.35385135000080      -3.39403115506775       4.17451856868877
F        -2.86931323873155      -4.52367021462291       2.07796531395503
F        -3.53067885132541      -4.70562538806873       5.44440705167792
C        -2.01513318843333      -3.23552781267042       3.71027838962327
C        -5.01216826109289      -5.17835895399468       2.99503815196201
C        -2.51731967295909      -6.39596157470116       4.13634932744994
C        -1.65917825549722      -2.61997796947954       5.08091554984327
C        -5.06428244277431      -6.44290558583095       2.10050489784655
C        -1.24991641681924      -6.42144076529051       5.01047381728415
F        -2.52438852772581      -2.20382843236308       2.93116760896966
F        -0.83359107831729      -3.64373004253857       3.11081731366691
F        -5.49358708675171      -4.13376813066943       2.21148023053235
F        -5.90653344870246      -5.37794232423778       4.03604248748116
F        -2.19879375781416      -7.01253376932140       2.93962671784292
F        -3.45842648634536      -7.17732716614544       4.78681195528841
F        -0.79251936335872      -1.55952867984818       4.88378729479841
F        -1.02874841111930      -3.53448608418609       5.89572459359417
F        -2.78250187271075      -2.13763118697826       5.72723561090373
F        -6.30502098256713      -6.50075176445858       1.48986602875085
F        -4.10796263554548      -6.41706323503707       1.10326652027841
F        -4.92085643761792      -7.59872343768923       2.84016684789523
F        -0.24738435196957      -5.64225025775014       4.47532621608471
F        -0.78069803471863      -7.72208969993574       5.07088593956980
F        -1.52547376731954      -6.01846661281315       6.30410257952340
