34
C10H22ClN optimized with ForceField in AMS.
N        -1.45649053396494       0.38543189760398      -0.08455432295330
C        -1.74484250593025      -0.86913486846203      -0.84075130060095
C        -2.55715646134578       0.51505850254196       0.91229537151972
C        -0.14951704156958       0.30412124737984       0.63799186888730
C        -2.97606658241409      -1.52151694303842      -0.23058908901282
C        -3.68460148224302      -0.39829487364998       0.47682689256707
C        -1.48824188693649       1.55963073895113      -0.99505282673178
C         1.09786082716113       0.33287191723043      -0.27584764907524
C         2.35798877040692      -0.04892294637235       0.51143163363223
C         3.61308245987696       0.06768880372821      -0.36068787490268
C         4.85927715370276      -0.36680155489743       0.40523234676611
H        -0.90504175930626      -1.59814819708231      -0.81445371860071
H        -1.95632746357443      -0.67023557969790      -1.91724819848402
H        -2.92698778508068       1.56064468623500       1.02410171973311
H        -2.23900615022488       0.18444867771329       1.92925258294912
H        -0.12331020043730      -0.62901162682363       1.24817035293932
H        -0.06139697877157       1.15382116399685       1.35390975790448
H        -2.66446005033883      -2.29064400543103       0.51132109042502
H        -3.62395683982430      -1.99188251514598      -1.00184815939109
H        -4.35265277173242       0.13605082944802      -0.23414558132798
H        -4.27620161125672      -0.76814780377944       1.34282936251284
H        -0.79875548123451       1.42308634080832      -1.85661764789846
H        -2.50758657524934       1.70881782924583      -1.41684096119038
H        -1.19727316305404       2.48858844668326      -0.45566741244908
H         0.97998963344291      -0.36766276183679      -1.12872940294052
H         1.23214555053739       1.35883434273090      -0.68212979209893
H         2.25836399742829      -1.09558421267988       0.87486293256248
H         2.46115879145051       0.62183399780183       1.39282301587511
H         3.74258370514427       1.12150265205695      -0.69007685587015
H         3.50453358751325      -0.57179679823451      -1.26294775800022
H         5.01028040065315       0.27926859319511       1.29627970054388
H         5.74927216297114      -0.27803001381517      -0.25267781012051
H         4.76352202866942      -1.42458483734183       0.73078560684071
Cl        3.61531916193135      -3.47172606206219      -2.24727146990966
