46
C14H26F3NO2 optimized with ForceField in AMS.
N        -0.71182281596419       0.31568764892815      -0.15622889843568
C        -1.28004976835634      -0.44772963133568      -1.31520714048319
C        -1.83868476881582       0.72487651958898       0.74541862190254
C         0.28064194985779      -0.50337178062032       0.62500431778550
C        -0.08022390639829       1.55599505461513      -0.72824033171116
C        -2.13437840903062      -1.66197634001421      -0.91243894439255
C        -2.73712324461517      -0.44385239067858       1.20116608478444
C        -3.27167045493879      -1.23636877607080       0.01140135491211
C         1.55954911710599      -0.92575224089546      -0.13918387342225
C         0.65659483197888       2.46780374537625       0.28481489577208
C         2.48629213226391      -1.73928201244703       0.77543570633363
C         1.22058115620666       3.70703161143200      -0.40816825680428
C         3.76030383393237      -2.15905455317594       0.04678702347699
H        -0.48480291186285      -0.78531893561025      -2.01170046030550
H        -1.93588292708929       0.21744732282841      -1.92492261162044
H        -2.49367201751944       1.47010623498141       0.23815835008983
H        -1.45462479556579       1.21305111229531       1.66670781197066
H        -0.18646540925805      -1.43204457985449       1.00630364396188
H         0.58797125850365       0.04388480316194       1.54316858650405
H        -0.85734450523797       2.17871028683542      -1.23017676903181
H         0.63438872190300       1.28894348397758      -1.53866834862551
H        -1.51621163936174      -2.44934528781627      -0.43420828928879
H        -2.57134278860999      -2.11247419710694      -1.83016858222273
H        -3.59814417372755      -0.03185803080425       1.77103876459237
H        -2.19239766128100      -1.11749168260957       1.89483528261016
H        -3.99750984396257      -0.61176868182943      -0.55470720241042
H        -3.80880955443898      -2.13808999305017       0.37748928418273
H         2.11888961301521      -0.03630760257026      -0.49435802855583
H         1.29891487340769      -1.55873293514082      -1.01136440862307
H        -0.03190260577307       2.81184708401120       1.08245822849911
H         1.50797878818250       1.93415567101385       0.75352521762913
H         1.95787408855808      -2.65251012974050       1.12706092141944
H         2.76491652129297      -1.13225790371484       1.66454947927796
H         1.75659843758427       4.33788429710744       0.33223184471261
H         1.93674463670970       3.41216665533520      -1.20298657054828
H         0.40206603332455       4.30797568004225      -0.85864042873817
H         4.32505980582957      -1.26410541686576      -0.29094416644009
H         3.51206825938616      -2.79045403661054      -0.83279524485217
H         4.40544868044691      -2.74674397721257       0.73376571503555
C         5.54932566478892       4.18211901536301      -3.93767948066296
O         6.71125740210513       3.90982553805550      -4.19540357945164
O         4.92051387357697       4.91147182708098      -4.68780848901127
C         4.89242325876575       3.62981671827028      -2.70774917009783
F         4.53439711240699       4.67021291971206      -1.87009725715261
F         5.75466735578639       2.78293064649184      -2.03256565421757
F         3.75973533628753       2.92368205277051      -3.06831554064696
