55
C15H20F18NP optimized with ADF in AMS.
C         2.72577655811391      -1.90594705825319       2.89436524756097
C         2.25826336418317      -0.46048994640991       3.03990819386212
H         2.76407672616257      -0.31490783043714       0.43308399420366
H         1.23430133645140      -1.13651780075115      -0.04857951165722
H         3.47175161176392      -2.49553350016125       0.90391858543615
H         1.84022656025265      -3.10214286369792       1.26842175412494
H         2.15384256095672      -2.58709974966850       3.54195332208291
H         3.78274160973178      -1.96889580360607       3.18105565296031
H         1.77246089608452      -0.21025000634954       3.99306103191927
H         3.08672216097616       0.23427778800622       2.84440982584169
H        -0.70552248992289      -0.88666932226624       1.39289175508140
C        -0.02486031005423      -0.94789578033534       2.24907051545327
H         0.18158931757879      -1.99853304979888       2.47972685699414
H        -0.46967553581246      -0.45138560995828       3.12110215345562
C         1.01943268584324       1.21769133104406       1.66824532566974
H         0.54487639043943       1.57587165037159       2.59482997563463
H         2.01452302314343       1.67726323612988       1.59222047564914
H        -0.58705388849502       0.77412891656138       0.25220378860494
H         0.61936959808276       2.50865912799722      -2.88379778529597
C         0.95557179490936       1.84836380503761      -0.83825228425709
H         1.68109523093457       2.65222268056182      -0.63105788626326
H         1.55308372676159       0.97379521805098      -1.14027884134163
C         0.03693819045605       2.26097088013923      -1.98428651209665
H        -0.55900198116183       3.14770139651309      -1.71501191992356
N         1.25825554268127      -0.25970653182568       1.91012132479655
C         1.95334696733509      -0.97588387351751       0.76458082259463
C         2.52160914289571      -2.24737927803746       1.39349456195830
H        -0.66350088890246       1.45218711425620      -2.24891232110360
C         0.16861674961459       1.55602981832099       0.44201023865449
H        -0.41547372377052       2.45708438691738       0.70101877958928
P         6.21296337513365       0.24535828075382       0.99195029981087
F         5.36501285325215      -0.17664533745207       2.39135077787225
F         7.29451994430395       1.16882594467387       1.83308408481656
F         5.09767028613512      -0.67836135745719       0.12323594823302
C         7.32369879457402      -1.32798666771125       1.42728143030968
C         4.97553690689695       1.88069926016363       0.95437442767191
C         7.00283215601934       0.77535215554598      -0.78580675460212
C         6.74802473477874      -2.77082703506706       1.27720929833305
C         5.39257164389230       3.35052130199950       0.58873228918726
C         7.85184043983835      -0.11561318372965      -1.75726271049987
F         7.68701973600036      -1.24791156817546       2.75480829651332
F         8.49733775277009      -1.32147364589923       0.70986291706077
F         4.47630952878520       2.05093553587279       2.24371049381581
F         3.85634627167105       1.63440086816871       0.16125467912057
F         7.75801664086132       1.91396032028774      -0.62051908776511
F         5.90084798240714       1.11340563921614      -1.55591644106239
F         7.68039744314816      -3.67275005711106       1.68744640774536
F         6.41013454434480      -3.08088114956072       0.00603280521504
F         5.64374271662092      -2.95380238473063       2.05551747489346
F         4.35286922781184       4.18100214441004       0.93883870091430
F         6.47811533878870       3.74435298183789       1.28013736576409
F         5.60327735689199       3.54617270825209      -0.72661066986940
F         9.15820063551769      -0.14236989262394      -1.41960121335114
F         7.78319384178869       0.41475481350016      -3.01350269469244
F         7.37515525923420      -1.38002905059770      -1.82637345472400
