30
C8H20ClN optimized with ForceField in AMS.
N         0.00996367220106       0.01600076997638      -0.00238086414765
C        -0.82836415894780      -0.21855436362931       1.22542139931967
C        -0.84767893828520       0.25890170042664      -1.21543940677912
C         0.85018728854859      -1.20830593348241      -0.24869209143619
C         0.86580324397474       1.23232142192408       0.22886115736698
C        -1.88831904487160      -1.33204905675275       1.11150179094643
C        -1.90655327457814       1.37141166997843      -1.07864764599267
C         1.90304729543343      -1.08637669349723      -1.36853153526616
C         1.93372249366026       1.10234303877451       1.33341024881098
H        -0.18592864943205      -0.49961147161095       2.08753547602058
H        -1.34442158201639       0.71571453064399       1.53824098536266
H        -0.21842793990246       0.54520409420913      -2.08551314902555
H        -1.36891376675995      -0.67310225952551      -1.52683012763793
H         1.37276105006083      -1.52502109474790       0.68077879561653
H         0.20794525019132      -2.07050343210519      -0.53002054676567
H         1.37849685793695       1.54143695309937      -0.70864347888641
H         0.23652434619942       2.10155371285326       0.51713677090083
H        -2.45241835562788      -1.38495938610846       2.06671000913037
H        -2.62518523776118      -1.13337609012228       0.30901844165452
H        -1.42201648246721      -2.32481895686060       0.95481904664554
H        -2.47731261586369       1.43608156206910      -2.02915563041617
H        -2.63851681600441       1.16034061879763      -0.27457849389852
H        -1.44086853307983       2.36301557222171      -0.91190634357180
H         2.46338582542711      -2.04298498619612      -1.43392365068136
H         1.43177545834696      -0.91786455877833      -2.35721268181979
H         2.64466683145119      -0.28908563220995      -1.16575298922355
H         2.50851916124541       2.05121442873880       1.38330777359173
H         1.47559447006905       0.94839401863536       2.33061745145044
H         2.66001171980350       0.29244126730654       1.12538530339460
Cl       -3.39407629775203      -4.75447138802796       0.97613445643669
