46
C12H26F6NP optimized with DFTB in AMS.
N        -0.73247972252489      -0.02033186372562       0.25475881631227
C        -0.66864420739974       1.45343837896383       0.54120256778979
C        -1.59759155191465      -0.71634067499024       1.26873579231262
C         0.64150144377441      -0.63381173550323       0.39606311849391
C        -2.04110682084340       2.09362983399797       0.69716445466133
C        -2.97727002959270      -0.09097123879967       1.41946787611233
C        -2.84581543221055       1.38554054792035       1.78336667317918
C        -1.24663136295310      -0.26534662002572      -1.11671064669755
C         1.73566745582942      -0.00699581584730      -0.46061516175677
C         3.06854745734067      -0.67975778371411      -0.10602175758632
C         4.22219881900004      -0.06216047984300      -0.89977190082237
C         5.55637819066483      -0.71599466169216      -0.52736163700542
C         6.71178229946164      -0.11697078024672      -1.32746371328521
H        -0.12557838276323       1.92279892512220      -0.28041203292279
H        -0.09816232045631       1.56979943332581       1.46266621626535
H        -1.06920119950245      -0.65758751144931       2.22240799630529
H        -1.67174191409218      -1.76311766490815       0.96451166086790
H         0.91514463017611      -0.53671925732583       1.44686344898855
H         0.53223097786224      -1.69547259555666       0.15729539215697
H        -1.87740170062114       3.13778630916359       0.97531076773838
H        -2.59002459648964       2.08153582473776      -0.24995941405434
H        -3.56600746278015      -0.20743653357618       0.50419870027502
H        -3.49209654047651      -0.63095480271449       2.21821259805943
H        -2.32957585541606       1.48187028060923       2.74310391091653
H        -3.83538174792388       1.83919936887583       1.87284605573488
H        -0.60885793473977       0.24838124718792      -1.83256736620498
H        -1.23505680934199      -1.33623802303450      -1.31221557018528
H        -2.26263366863208       0.11179163676832      -1.20183794056105
H         1.52583048905460      -0.13081550307424      -1.52770108935758
H         1.81984183079359       1.05954933820362      -0.24280429368454
H         3.25299113767731      -0.55329660988385       0.96480687184065
H         3.00584190776937      -1.75331629847587      -0.31469926227799
H         4.27144209884983       1.01148899911313      -0.68987813569195
H         4.03833045423041      -0.18498187799924      -1.97352923799313
H         5.50017671749256      -1.79311767391211      -0.71934461418315
H         5.74195740244590      -0.57606742218244       0.54224203664928
H         6.55697873838058      -0.26922560561275      -2.39681973498697
H         6.79352226513837       0.95396752507689      -1.13714857731514
H         7.65010150938738      -0.59316658703442      -1.04186752491920
P         1.71035521328745       0.95427153851069       3.70617152861426
F         1.27338840132501       2.46396268257864       4.14082082617289
F         1.47242027608448       0.39389657271492       5.21212696319597
F         0.08308421659478       0.62206360776641       3.33826791676819
F         2.07778590136731      -0.57957310107321       3.17570508499616
F         1.88908148760359       1.48422629786519       2.11653984714042
F         3.27858880108257       1.25849965439868       3.98978158804423
