26
C4H12F2N2O4S2 optimized with ForceField in AMS.
N        -0.00218276921859       0.00641877126204       0.00615131017079
C        -0.91584098227502      -1.10724267548366       0.34464578299112
C         0.64873530470828       0.50269641499754       1.23866502884466
C        -0.77250712863578       1.10288629716270      -0.62137819015508
C         1.03083382925153      -0.47290925512599      -0.93815608601365
H        -0.36141494628949      -1.94854714414736       0.81793882981503
H        -1.70439921190047      -0.77410601851769       1.05623201454071
H        -1.42091547616641      -1.50010406618223      -0.56631425096935
H         1.34373710117197       1.34229754535358       1.01243381328410
H        -0.10689618457189       0.87110107263627       1.96832137221886
H         1.23599786831293      -0.30399846084556       1.73219094922897
H        -0.10821419134184       1.95539596500868      -0.88797787881798
H        -1.27402456135946       0.75601615009300      -1.55281106690793
H        -1.55830980035819       1.48413322060141       0.06874584240093
H         1.73395455927322       0.34579758250490      -1.21097636464758
H         1.62571846643325      -1.30173211918511      -0.49285209436198
H         0.56644193093607      -0.85028824435998      -1.87534831835564
N         1.07006247733609       0.11428778585940      -5.89771658645553
S         2.65544385231987       0.06171558293210      -6.29938893468557
S         0.20576118318147      -1.25727737612791      -5.67501295648409
F         2.80744134489157      -0.44241911897723      -7.88866517820508
F         0.66698505549365      -1.97546264006233      -4.23568982659345
O         3.25771991015210       1.42943019371895      -6.15069085406979
O         3.37800471477653      -0.90965084616972      -5.40915482280937
O         0.46734187155433      -2.21772648188434      -6.80069640348657
O        -1.25810826937569      -0.92613461376148      -5.62119687937653
