34
C8H18F6NP optimized with DFTB in AMS.
N         0.38782082081845      -0.04578368135741      -0.21836254117231
C         1.07469403946954      -1.29990178201128      -0.69525670289561
C         1.45707287125414       0.77368908557424       0.48469849075846
C         2.53834986311499      -0.92280144149629      -0.84983189436524
C         2.77493187721692       0.02186876642208       0.32333475235625
C        -0.69922882324942      -0.38664760136909       0.75284996958721
C        -0.13901048300362       0.71392552166205      -1.41141317730726
C        -1.80450679823552      -1.25055605293191       0.16228784193651
C        -1.00273270980894       1.91054123287454      -1.04566420213574
H         0.60961631380425      -1.64415028883295      -1.61855319322721
H         0.95527410520073      -2.06399503739070       0.07704866286833
H         1.17852564655696       0.89627967295397       1.53174668220912
H         1.50409516564915       1.75413418738665       0.01353381971512
H         2.70295625590750      -0.41174951872876      -1.79899627526460
H         3.17454758476151      -1.80724496122338      -0.80566888804917
H         3.00772223913901      -0.54356310114797       1.22972988479012
H         3.58527128919602       0.72218985372300       0.12062477952963
H        -0.22414478243578      -0.91078552791251       1.58623219573586
H        -1.11167723104686       0.55284258727691       1.12587237783029
H         0.73732820041284       1.04074961981864      -1.97397820376849
H        -0.70937830288544       0.01160778744319      -2.02368411200212
H        -2.51444109621978      -1.47679365829337       0.95744073637522
H        -2.33733314126564      -0.73448011762966      -0.63383472746655
H        -1.41286785958079      -2.18939275727630      -0.22567074560697
H        -1.10861005555497       2.52184726338971      -1.94092750423673
H        -1.99490459938356       1.60983173934398      -0.71039314343984
H        -0.53330208366976       2.52378025657703      -0.28022616908624
P         2.91427909713005       3.28607608649665      -2.00546272775471
F         4.44355750385148       3.18618517626507      -2.54724616091101
F         3.41647145885780       2.85936747304982      -0.47272171859949
F         3.07345972635764       4.85947527362850      -1.63828256287564
F         1.33646900802532       3.30200212992149      -1.41901329100669
F         2.34966398385213       3.63066778113254      -3.49581403886708
F         2.69915758606362       1.63892015366150      -2.32707988655344
