41
C11H24BF4N optimized with ADF in AMS.
N        -0.18728500882147       0.48284794738281      -0.26868029230074
C        -0.94580956187591       1.20223063843017       0.82641841925008
C        -1.08979732894693       0.35516674442121      -1.48838334501234
C         0.25374665030503      -0.88369628331333       0.24170069753765
C         1.00950626307411       1.32905187980697      -0.69969540583386
C        -2.27555224909188       0.54799467206739       1.17170900188543
C        -2.41182500874883      -0.32331602005634      -1.17782165098553
C        -3.16193583109162       0.40634392638455      -0.06396727479201
C         1.12135628172032      -1.67966063371301      -0.71189491484061
C         2.09885153327443       1.51906101047029       0.34164227334551
C         1.42291161092136      -3.06318308414285      -0.13823127164721
C         3.23140258396160       2.34811835421187      -0.27396213805075
H        -0.28146274657576       1.25523648666559       1.69929324358836
H        -1.11239521902455       2.22517470714605       0.45157435948552
H        -1.26684467843330       1.39113653481327      -1.82144027621115
H        -0.50107258418978      -0.14258462534316      -2.27212994732285
H         0.77403529570073      -0.69046551072090       1.19319084486591
H        -0.66589721720605      -1.43467601576021       0.47734948467240
H         1.41931974011566       0.85540440249934      -1.60444134936249
H         0.57845930925053       2.30132502974141      -0.99036831049592
H        -2.11128286531395      -0.43399805879147       1.64585076617593
H        -2.76204439538063       1.18092452644314       1.93252183190526
H        -3.00087087845820      -0.32137808983750      -2.10941228332081
H        -2.25773267136228      -1.38424110399641      -0.91705518610453
H        -4.09545028192725      -0.11891871228411       0.19142689223322
H        -3.44472411128983       1.41402427041264      -0.42117757544921
H         0.63293241539450      -1.79928242885654      -1.68963613259942
H         2.06561062838629      -1.15681206933820      -0.92218509790823
H         1.71581389097060       2.02252253261566       1.24623650301838
H         2.50953093154490       0.54277377478226       0.64497112589597
H         2.05870306120013      -3.60812479419073      -0.85051956213648
H         0.50423671230649      -3.65256670394867       0.01760803234839
H         1.96011491632140      -3.00424132743989       0.82216755632964
H         4.03774364185297       2.49666449731047       0.45848099399033
H         2.87407376477605       3.34054052989147      -0.59149198429997
H         3.64051867540137       1.82854914141842      -1.15275857587290
B         2.46228050797325      -0.59343209164814      -3.66092840709304
F         1.10231611433709      -0.07901681753443      -3.59494296441429
F         3.17534038533592      -0.01012393633935      -2.54524909325672
F         3.05648740416233      -0.21857773200462      -4.86633960368113
F         2.41843208305118      -1.99692516195513      -3.49430364033579
