45
C11H20F6N2O4S2 optimized with ADF in AMS.
N         0.04831170215902       1.28975962928095      -0.36892699733639
C        -1.18147889823033       0.44422098908859      -0.12456063857611
C        -0.10867581727615       2.37455695587687       0.68795176570240
C        -1.30586631352329       0.35804397851410       1.39569003342685
C        -0.61503045645980       1.64238292741473       1.92909607497417
C         1.32151795379956       0.50661146786972      -0.09660349845959
C         0.03047995148117       1.86028855671476      -1.76925072909346
C         1.59917338230883      -0.63726679385880      -1.05498159540084
C         1.24718918922367       2.69286107257292      -2.11138106178285
C         2.90816836580730      -1.31665809250498      -0.64600193566839
H        -1.07936102960467      -0.51516219006511      -0.64608793540737
H        -2.02167754394121       1.00257991195304      -0.56553175927147
H        -0.85271665150514       3.07948858591784       0.28786071511269
H         0.83910295844726       2.89920737479982       0.83883197797458
H        -0.81375382632480      -0.54708423240715       1.78141478660440
H        -2.36580647249187       0.29597017057869       1.68135581555401
H        -1.30636571136552       2.28916587997333       2.48647655226294
H         0.22685981402757       1.41040109862357       2.59678838200804
H         1.25267504981010       0.15039244831042       0.93974137637579
H         2.13968853544899       1.23955842850896      -0.11092965277977
H        -0.08598818305119       1.00527008776567      -2.45191027252531
H        -0.88815007536476       2.46473142243854      -1.82394099615012
H         0.78355167105894      -1.38096082636513      -1.04680701118891
H         1.69415375914443      -0.26671946239425      -2.08928675702032
H         1.39420425331588       3.51995237684857      -1.40728241878664
H         2.17142371616355       2.10115098172863      -2.13627878449776
H         1.09466148952705       3.12422604201406      -3.11205107501220
H         3.74039325711542      -0.59688666133744      -0.65396657896151
H         2.83627909124720      -1.73090871870589       0.37084267531961
H         3.15117966518657      -2.13700545532548      -1.33638428160895
N         2.43190527843433       4.06731599640183       2.40449950239923
S         2.75510820680842       5.62323139549589       2.07871667216187
S         3.32104178774907       2.83585475955064       1.89600792473781
C         1.95692110636418       5.96128387217264       0.39551544822786
C         5.06189422343092       2.92420622139948       2.66716417887904
O         1.92787556777734       6.42038635243614       2.96870820035485
O         4.16281840694284       5.92765370037764       1.86903620398196
O         3.57953260370559       2.80397932487713       0.44722746208011
O         2.74075981050923       1.63398206874952       2.50402263201795
F         1.89294433911078       7.29652532477853       0.19468327076056
F         0.67939324479665       5.46712016375910       0.34298169972212
F         2.65131971921741       5.41020002322106      -0.63010407412082
F         5.56251830397160       1.66036493278362       2.68348059500450
F         5.00468635746195       3.38280102446875       3.93542925492267
F         5.89136826848592       3.69674502029846       1.94610061638276
