55
C15H29F2N3O4S2 optimized with DFTB in AMS.
N         3.14298354416912       1.42065099039767       0.39301549168751
N         2.77719923303459      -0.65168383262280      -0.07438867232541
C         1.84838590145232       3.48258543982437       0.83233587617323
C         3.14038695287459       2.70169430149741       1.09491090148797
C         0.74643954157231      -2.02635879182105      -0.28946738287208
C         2.24890135402049      -2.00941996015128       0.02958127135537
C         0.60859743140826       2.78112627439423       1.39007500909566
C         0.46839581106426      -2.05354082785850      -1.79591825842438
C        -0.63953172732813       3.64629263664377       1.19030130821004
C        -1.00318606975736      -1.73849933596711      -2.08418038097445
C         2.62016035614289       0.28817589816167       0.85989473327857
C         3.61018308686891       1.21001852768031      -0.87348502964399
C         3.38032634814234      -0.09799228336846      -1.16793142461421
C        -1.88735774762895       2.94305463421816       1.73202241351289
C        -1.26704706218939      -1.67381606196571      -3.59168310876166
C        -3.14738581189407       3.75453179880544       1.43853380886629
C        -2.72164534374196      -1.30998198276531      -3.88257843001857
H         1.96688839054246       4.46143444810047       1.30648338714504
H         1.73403297174492       3.63643288861085      -0.24269296246905
H         0.28523303568777      -1.14161545819304       0.15775548073184
H         0.31094982249859      -2.91073229797648       0.18459649844432
H         4.00376104527631       3.26912593416924       0.73886190684193
H         3.26443147112964       2.49635917720301       2.16245108088069
H         2.42777955952931      -2.35325193365422       1.05240966600529
H         2.80936807324000      -2.64279479993766      -0.66216053577684
H         0.75276434698294       2.57001214072011       2.45700389600045
H         0.46686537517705       1.82820398296752       0.87152301916232
H         0.73071981365196      -3.03860517968114      -2.19693408839473
H         1.09576153062911      -1.31199656118907      -2.29520595226813
H        -0.50524521916617       4.60811327936563       1.69779790629965
H        -0.76809782044526       3.84254914114317       0.12247568869897
H        -1.25661940549645      -0.77432651609908      -1.63277403342338
H        -1.64009895100786      -2.50312812198044      -1.62569029736727
H         2.18084789402179       0.14591308866443       1.83166302152362
H         4.03615827842614       2.00082452883940      -1.46505087072411
H         3.57368432981766      -0.65788223193614      -2.06534687955819
H        -1.97726220067962       1.95913584895157       1.26185810897706
H        -1.78535753660207       2.79313119639704       2.81332118055112
H        -1.02923006667289      -2.64130770743781      -4.04811961412481
H        -0.61084222698634      -0.91996344413852      -4.03801035308903
H        -3.08291839175899       4.74496684501665       1.89230233962687
H        -3.27607535103799       3.87140589738906       0.36225427120750
H        -4.02311443559178       3.24369357161657       1.83995233167415
H        -2.89120781816316      -1.28631865237093      -4.95926642430520
H        -2.95610725353790      -0.32735346197505      -3.47313053425196
H        -3.39799254623799      -2.04274376017604      -3.43924790622649
N        -0.47137023923752       1.64682470775094      -3.35990976457450
S         0.93992242772333       1.60465910336224      -2.68768675670054
S        -1.65472335557138       2.33406191909189      -2.52584158934909
F         0.71661325150139       0.84704997812457      -1.22277332045209
F        -1.16611832331472       3.85934812897146      -2.30675766060800
O         1.76487112060681       0.67834283259401      -3.40685960557638
O         1.54470091469696       2.84525896132700      -2.28975413477378
O        -1.82173110874713       1.82657033521789      -1.19953564853558
O        -2.78860337983909       2.42195542894809      -3.37859209665448
