37
C11H20F3NO2 optimized with ForceField in AMS.
N        -0.41336518458738       0.17284662217335      -0.06945786482719
C        -0.98328691067120      -0.88244569906672      -0.96290645318724
C        -1.47115936719928       0.42511790606386       0.95662105588940
C        -2.44542347849331      -1.07273203104739      -0.60753566114163
C        -2.52197973157417      -0.66106920971804       0.83501788173840
C         0.82531304740390      -0.33536681164405       0.60549243104006
C        -0.15770481100852       1.41779979501871      -0.86449761994599
C         2.00621144284141      -0.61867188597830      -0.35394983248032
C         0.44951909141682       2.57899866858114      -0.05558335178280
C         3.14881677409944      -1.31657175024734       0.37654277630714
H        -0.48785647794930      -1.87008389163713      -0.81937712306046
H        -0.88798659910338      -0.64043651693030      -2.04606196963952
H        -1.99287219258011       1.39620396458578       0.79384463327154
H        -1.07682531415790       0.45317869424417       1.99805498474881
H        -2.77374867000533      -2.12603991775760      -0.74674855387707
H        -3.07564267579215      -0.39816898698008      -1.22811539812010
H        -3.53653476355310      -0.28949400753429       1.09776658309835
H        -2.25548284762191      -1.52010176074357       1.48968472618004
H         0.58588471738288      -1.27321228779848       1.15930620755996
H         1.17185441784837       0.38358710722480       1.38057626028344
H         0.51532563824071       1.20740327977293      -1.72431009470401
H        -1.10938914465437       1.77963152368116      -1.31780150449995
H         1.68844742833554      -1.26293100371635      -1.19945719914797
H         2.40243638458864       0.32950388291215      -0.77290146355799
H        -0.14684479038832       2.80318226883601       0.85183695132175
H         1.49533422326648       2.35926722052498       0.24010710902691
H         0.46834623534383       3.49181365101253      -0.68726578900253
H         3.55866819286506      -0.65610329779086       1.17013432169310
H         2.79826909029003      -2.26683780974268       0.83219835503812
H         3.95662475232122      -1.55159984643582      -0.34628545955006
C         6.97382134290495      -0.32851723626951      -0.08230467622323
O         6.61698935799267      -1.49537563364886      -0.11620559952627
O         6.27829002563862       0.53071247868073      -0.59964656255122
C         8.26016030982176       0.05322805498305       0.58729720765707
F         9.10616777097464       0.63688703865629      -0.33735856428556
F         8.87928572220711      -1.06284439490471       1.12277246459724
F         8.00298868275567       0.95575579824045       1.60265972155978
