25
C9H14ClN optimized with ForceField in AMS.
N         1.12373503073819      -0.01143439655512       0.49008004395281
C        -1.26789200100168      -0.00191179609589      -0.07851190867840
C        -0.23265707859469      -0.03551787605521       1.05020031807339
C        -2.69575919931824      -0.03263655208183       0.47529698642992
C        -3.72516144888317       0.00118432337985      -0.65068347435017
C         1.73727991144089       1.18740548642141       0.24869428870101
C         1.75097705942236      -1.18696316770196       0.17901558623451
C         3.01200969617041       1.22949884658720      -0.32169870194222
C         3.02584369761744      -1.18084957684823      -0.39259040004346
C         3.65649138974426       0.03645738308594      -0.64518043349156
H        -1.10956701318969      -0.87955177228781      -0.74277279259296
H        -1.12268275079717       0.92307020090847      -0.67781558044727
H        -0.37735943130526      -0.95036938630661       1.66714098681009
H        -0.38449693938385       0.83491613959320       1.72672401927656
H        -2.84525936050785      -0.95867496433929       1.07146629598320
H        -2.85982908310811       0.84416775108320       1.13867113732977
H        -4.74752196020400      -0.07005080926607      -0.22313612343429
H        -3.64346179612413       0.95238064897488      -1.21811586833626
H        -3.57070985882417      -0.85337329923955      -1.34321230104033
H         1.23839596344074       2.11844783821373       0.48998450401293
H         1.26293353740785      -2.13630671498648       0.36482870578572
H         3.49304347964975       2.17972001003286      -0.51350795179784
H         3.51760155127028      -2.11258348900524      -0.63994409683344
H         4.64188717267119       0.05526576769740      -1.09256782510073
Cl       -1.85029679433133       0.71531619699116      -3.77758394430097
