17
C5H9ClN2 optimized with ADF in AMS.
N         1.13913859882490       0.03647957560603      -0.30374685000766
N        -1.03808905411731       0.00963494361760      -0.07054068498013
C         0.09545385297332      -0.70815599713363       0.14602020737896
C         0.67759204330848       1.32170477320627      -0.55682212101317
C        -0.67217763270853       1.30538468171684      -0.41165008843526
C         2.51578669084374      -0.32174609311569      -0.00965631325420
C        -2.31127648486970      -0.38173496635180       0.50880382971922
H         0.11955307364198      -1.78557089370408       0.24432617814641
H         1.34860633628685       2.12276120010268      -0.83725785712860
H        -1.40637746634142       2.08898065482493      -0.54192154153789
H         2.74690391098265      -1.30361991234900      -0.44256416603637
H         3.18139372949301       0.43012231133714      -0.44805252065417
H         2.62399594269958      -0.35825463010685       1.08737186737688
H        -2.18007408785062      -0.42453037318225       1.60309740300772
H        -3.07198912530861       0.35639810498353       0.23062285588862
H        -2.60854733255542      -1.36717114933366       0.12698818221228
Cl        0.35518643309709      -0.66827142181806       2.58536663621736
