27
C7H13BF4N2 optimized with ADF in AMS.
N         0.33337681728167      -0.85121469531990      -0.41020894774902
N        -1.74424647183736      -0.23487041097446      -0.45750086092211
C         1.74393062418728      -0.99616121372896      -0.79794314779744
C         2.68298461581192      -0.43856215996684       0.26408198023614
C        -0.54011798889793      -0.04070409653254      -1.01386700904193
C        -0.32433688240092      -1.59029754366581       0.54809970336439
C        -1.63413532702392      -1.20580884304236       0.51701133202009
C         2.50535444192056       1.05851491387903       0.49789657225326
C        -2.97972230655578       0.36723188408620      -0.95326028013285
H         1.84330222994551      -0.48220743106073      -1.76534583854872
H         1.90589227615891      -2.06674155488266      -0.98907575180676
H         2.54653477773069      -0.99169180478350       1.21088762294398
H         3.71090817142898      -0.65354751495155      -0.07498392912168
H        -0.31843761246028       0.55673050550612      -1.89532981966915
H         0.18069600676291      -2.33739342450148       1.14672476301741
H        -2.49032267019732      -1.54906053290055       1.08324472752388
H         1.48844337711327       1.28966507218080       0.85242810247709
H         2.67970352302005       1.62435736911205      -0.43136464687457
H         3.21355932711327       1.42373979841214       1.25691272064040
H        -2.91598236125440       1.45955876706317      -0.87342385127414
H        -3.10330281271050       0.06234180199544      -2.00114084773527
H        -3.81271093940311       0.00411331662106      -0.34221045123226
B        -0.30840186875371      -1.23146421891165      -3.81534839533758
F        -0.25187401874115      -1.65042192060129      -5.14022847786202
F         0.56086782575502      -0.08161342554440      -3.60736910417636
F         0.10069691527947      -2.25683694202532      -2.91562091233103
F        -1.63994909827314      -0.81426570156202      -3.45762418976375
