45
C13H23F3N2O3S optimized with ForceField in AMS.
N         0.21047413296585       2.31593603046985      -0.20987295840525
N        -1.86395262836697       1.50574441174439      -0.19195819467282
C         1.60345983064243       2.51720380740142      -0.61263926768800
C         2.53369298012080       1.49550653558812       0.06176198933227
C        -3.04656071080072       0.73762600995900      -0.58371676364878
C         2.09986001338354       0.05327854322576      -0.23045272978121
C        -3.06142443227064      -0.64518105208051       0.08629428607921
C        -0.74767733233770       1.69162899120041      -0.92451349574488
C        -0.32198353870429       2.54242375727480       1.00839303798860
C        -1.60809999775292       2.04122375002831       1.01914496436840
C         3.06806864153741      -0.96853198857474       0.36827281540045
C        -1.84931044950690      -1.49252023389451      -0.32452020717023
C         2.56310501291754      -2.38982756808279       0.13210060309480
C        -1.88322813414842      -2.87482083443148       0.31729725813949
H         1.92243421075940       3.54573206524236      -0.33818996581075
H         1.69615560881125       2.42062996010642      -1.71681655354194
H         3.56707822003585       1.65293810569224      -0.31720763439635
H         2.53814581079553       1.66790060449851       1.16015403767824
H        -3.96122702517838       1.29818462500856      -0.29326330136260
H        -3.06942296538435       0.61051217079777      -1.68842876253253
H         2.02742925915915      -0.10157487533832      -1.32987979002606
H         1.10451227980512      -0.11229516717039       0.22343099439157
H        -3.99236617187617      -1.17304010592308      -0.21564013280274
H        -3.07848642989587      -0.52198629807414       1.19121236554511
H        -0.60571901191843       1.30490196566101      -1.92599552388163
H         0.20078102023911       2.99360567123269       1.84166279135340
H        -2.28787231647738       2.02897420180790       1.86115970991946
H         3.16223390199760      -0.79951882269236       1.46329085497781
H         4.07066325646963      -0.85540808700384      -0.09764239587121
H        -1.81993550591366      -1.60285747438637      -1.43028975973469
H        -0.92150380964516      -0.98982462961965       0.00363205809391
H         2.47162588068647      -2.59278847711413      -0.95629565726261
H         1.57210246157631      -2.53405492587440       0.61467277822217
H         3.27938326926301      -3.11390699126427       0.56910329392884
H        -1.88560985620831      -2.78504335829233       1.42463225877530
H        -0.97956851954995      -3.44471721752390       0.01232526202010
H        -2.78502364031550      -3.43197946845970      -0.01236694093135
S         6.48799961188198      -5.01296052963056       2.82166990731020
O         7.00796263503030      -3.88118823920905       1.92350466036529
O         6.14132427488596      -4.28808232317044       4.13015222577891
O         7.76472719993552      -5.78678449932353       3.18073386260922
C         5.15075322504026      -6.01532607291095       2.11274138637481
F         5.58765235668177      -6.60585754517757       0.94261506197672
F         4.06321778457385      -5.20898200498081       1.84280703751420
F         4.78139972955606      -6.99534932093568       3.01348930852709
