47
C13H28BF4N optimized with DFTB in AMS.
N        -1.64000552920082       0.42818212310728      -0.00817424087716
C        -2.62523505324466       0.42071525706061      -1.13531760771915
C        -1.75565755264126      -0.86318571861090       0.74433368650435
C        -0.25688351105023       0.53265590587658      -0.62587835661298
C        -1.86615358706133       1.58724111241104       0.93862524900531
C        -4.05764338793578       0.20935822132482      -0.66169355769925
C        -3.17325107852514      -1.17501335774062       1.21526437298118
C        -4.17398869755173      -1.13017203984044       0.06256907211645
C         0.88934384536353       0.02900228020124       0.24755098917615
C        -2.09496462659819       2.92918705410157       0.26506284336558
C         2.22163332305145       0.48360553711057      -0.36157138931853
C         3.39044403067296       0.05866803266800       0.53123533801372
C         4.72604550010940       0.53661393432208      -0.04595793592506
C         5.89612426522544       0.12367929887024       0.84543233071911
H        -2.34122474537236      -0.39668759956059      -1.80452146479597
H        -2.52012418171349       1.36338411366446      -1.67410617470975
H        -1.08867427880151      -0.79876396966743       1.60516640109973
H        -1.40532170179769      -1.65413210485628       0.07525819931703
H        -0.10094036633281       1.58781801323926      -0.85402617192899
H        -0.27997197657897      -0.03265542851411      -1.56175711300129
H        -2.72763532585810       1.34127138897517       1.56055603661434
H        -0.98090173924835       1.63944500092718       1.57478937243433
H        -4.70480024290241       0.21709363626853      -1.54252330957197
H        -4.37437147349454       1.02331301133392      -0.00561951083620
H        -3.47925150232860      -0.47930128068521       2.00041886659841
H        -3.15461181315741      -2.17654409902106       1.65318708019995
H        -5.18761645744546      -1.25951352254561       0.44867891354283
H        -3.96889072357211      -1.94555486250681      -0.63893296448495
H         0.81187730686845       0.44214091498288       1.25422548380030
H         0.87102789389648      -1.06356695193738       0.31196717177619
H        -1.30866727610977       3.16392584650321      -0.44870790844458
H        -3.06653865979787       2.98819875781420      -0.22551381618486
H        -2.05183558075256       3.68098104902835       1.05330107927037
H         2.21522918320783       1.57334415996748      -0.45154910420712
H         2.33831855234817       0.05634650282461      -1.36439743508208
H         3.40144615931284      -1.03298339943627       0.63104007732759
H         3.25133184526029       0.48634659127156       1.52901225535779
H         4.86433813002160       0.11517041100074      -1.04818462947094
H         4.70939389280898       1.62710653428673      -0.14069238900261
H         5.94248782287606      -0.96266967209554       0.93887603945350
H         6.83544089223227       0.47582861994077       0.41799345156037
H         5.78532483700031       0.55292105472915       1.84194280766625
B         0.78071882076865       3.14146044386236       2.07677573053524
F        -0.34849483364925       3.89695899227346       2.40163574413692
F         0.64207516251460       1.86008054094445       2.68531859228202
F         1.95064398118855       3.74008329852385       2.45016203856247
F         0.75986045839458       2.91479955820191       0.66166706425597
