67
C19H28F18NP optimized with DFTB in AMS.
N         0.85212299835452       2.04972973534075       0.80901171940858
C        -0.64586835613220       1.95165265537053       0.81379655484858
C         1.23666635931199       3.49446585895500       0.99283877746217
C         1.31710097690800       1.59604239105796      -0.55095866949821
C         1.46720046394455       1.21706403093392       1.90005740400002
C        -1.27806512491304       2.53007286406804       2.07513872699344
C         0.64704773174687       4.11191867160569       2.25274654086885
C        -0.87397790665000       3.99156714968057       2.26278026324870
C         2.83093050668278       1.57199630903031      -0.75360851113899
C         1.24953383941821      -0.28826421694741       1.78847702079594
C         3.13239113920794       1.03801955781878      -2.16054074262633
C         1.95187848001219      -0.96327169553999       2.97586565588477
C         4.63644855583424       0.97257306457450      -2.41349985562523
C         1.80725547692590      -2.48110927767387       2.91136251389578
H        -0.91228364382890       0.89978485893687       0.69454324931984
H        -1.00005905087983       2.50219125605293      -0.06242340055095
H         0.87832218093330       4.02923425858466       0.10852954750412
H         2.32367989972819       3.54575421765720       1.02353320169109
H         0.85975445864219       2.27425917438568      -1.27703515092094
H         0.90096737727581       0.59832408235876      -0.71259665808062
H         1.06060148243067       1.57093385915626       2.84657312465005
H         2.53390598912918       1.43244544234773       1.89411970790435
H        -0.99453031871063       1.94231781233966       2.95172425050536
H        -2.36258757104114       2.45204286173481       1.96072523672658
H         0.94123558958279       5.16392532519053       2.26110510382607
H         1.07254919338306       3.64859727618261       3.14459170613163
H        -1.29965776579804       4.59470966758476       1.45386693242551
H        -1.27006710426864       4.36367217054837       3.21000561715961
H         3.31381085258886       0.92833227803359      -0.01610293984175
H         3.24918726864191       2.57501197773676      -0.64829138418356
H         1.67257489721028      -0.67631913455665       0.85843248728154
H         0.18385763844164      -0.53474876185443       1.80816463337903
H         2.66193152933692       1.68920554323174      -2.90524492204756
H         2.69794913038621       0.03782751084368      -2.26800624242393
H         1.52051273255623      -0.59133170778226       3.91037861701483
H         3.01240392035509      -0.69449441157310       2.96592531363863
H         5.11975159189059       0.32981466067686      -1.67771385181052
H         5.07668675497339       1.96678898876908      -2.34838071657070
H         4.82660097968330       0.57005923343331      -3.40832507852090
H         2.25687045974344      -2.87024463250294       1.99697066322664
H         0.75505016514239      -2.76869100485553       2.93198972611534
H         2.30879054498100      -2.93512524541000       3.76546306084009
P         5.17594889508580       3.32257322386878       3.08556698142880
F         5.40110089686940       1.72502797872506       3.53396404147550
F         4.06752663859104       2.77752153940414       1.87586176017491
F         6.23380265670290       3.90792619165283       4.23666302938282
C         3.74147398234505       3.26184150860510       4.44563199959389
C         6.70575510415785       3.04626985003842       1.88214143981340
C         4.73187966111108       5.15896411107580       2.40645728518217
C         4.15224177893150       3.00879118169353       5.92458300763579
C         6.43370668679518       2.37808780147396       0.50945648980192
C         5.20645114148065       6.40898233453999       3.18811968730653
F         2.89309030911615       2.25200271549518       4.11975583048872
F         2.98251735787542       4.37613646977266       4.48835097401438
F         7.58603724793674       2.25017041724731       2.51052684091144
F         7.34177105003316       4.20616599422387       1.64643616094871
F         3.38273000514552       5.26932923678678       2.28158314604599
F         5.20476704694495       5.27776046713367       1.15038555795873
F         3.05131994973832       2.73437018557375       6.63830265097004
F         4.71318434444866       4.09102608919013       6.44915735680461
F         4.98435406110144       1.98677239295595       6.06599609425795
F         7.56617614455545       2.18171747844987      -0.16320678952714
F         5.84532278488783       1.18814411284897       0.66337122045033
F         5.63482124307994       3.12232123016362      -0.26007586888438
F         4.68227691207163       7.51913971240930       2.66161911510630
F         6.52809894213481       6.51965731253255       3.15047832308633
F         4.82365706189852       6.34292018851297       4.46142116006526
