55
C17H18F18NP optimized with ADF in AMS.
N         2.42366520764376       0.03289722752528      -0.98863958107196
C        -1.32031407569350      -0.28009311158021      -0.84200535870465
C         0.06150807001888      -0.15559938577652      -0.19854808617347
C        -2.20659279455665      -1.27194159493953      -0.09078134251296
C         1.04453118509307       0.57991464158998      -1.11621865497326
C        -3.54220784238613      -1.51246061491554      -0.79118981309226
C        -4.38431368514481      -2.56988096077595      -0.08178823894596
C         3.03790393007582      -0.48773543264238      -2.07103074557082
C         2.98975406760504      -0.04423542602267       0.23640387068281
C         4.27619296687680      -1.09126787983678      -1.95277065498835
C         4.21988614027184      -0.64384016782290       0.40411084828010
C         4.87600714830850      -1.17638064966076      -0.70415651092317
H        -1.18768325968671      -0.65196351386605      -1.87197272668160
H        -1.81160598133431       0.70816141946016      -0.90905800603430
H        -0.00886945179099       0.34523296903769       0.78240403311152
H         0.44741683402321      -1.17230380984350      -0.03638243306971
H        -1.66506525256118      -2.23247946856634      -0.02146321037096
H        -2.38251503617664      -0.92239970581760       0.94431083933891
H         1.10451693170888       1.66115190906775      -0.91353968059881
H         0.76299926015923       0.43258434386837      -2.16619417163276
H        -4.10352082428553      -0.56218800532090      -0.85794966728868
H        -3.34075307476165      -1.83632276415194      -1.82754035217924
H        -4.60834769039772      -2.26760823979095       0.95448280332487
H        -5.34059947815926      -2.74041548243582      -0.59897195169246
H        -3.84456459287344      -3.52950903070645      -0.04429855362194
H         2.48794163956165      -0.44692089431855      -3.00710326582999
H         2.41042129717712       0.36905259426112       1.05886542998696
H         4.72721793559700      -1.53699839595085      -2.83877943597637
H         4.64850931435718      -0.70743703497313       1.40396434994686
H         5.83791819841237      -1.67689395022404      -0.58616899712561
P         1.01378736355013      -3.90661007027022      -2.42332081663194
F         1.35788728269833      -2.40252694137870      -1.71203092838214
F         2.35801790367005      -3.79434836313919      -3.40558847530548
F        -0.32113758084824      -3.99774235428697      -1.43145679722878
C         2.21797307053915      -4.57548342553071      -1.00152822814176
C        -0.00519938882081      -2.80330415709821      -3.81342461205868
C         0.41620031637927      -5.63143476064799      -3.25275019403926
C         1.76282256232721      -4.49916338226975       0.48923729340507
C        -0.00401476363522      -3.06697455107539      -5.36236585999169
C         0.42052008195839      -7.05482200502243      -2.59227308708933
F         3.39826841820873      -3.83896746816027      -1.02695254516107
F         2.59320817217726      -5.87730644365273      -1.21217768791348
F         0.52556178543677      -1.49986514246644      -3.78312984312348
F        -1.32455222845384      -2.67315583606934      -3.45830325829058
F         1.06054325636149      -5.80774484616305      -4.45612480849747
F        -0.92355188538102      -5.41433300835875      -3.51411499848244
F         2.77560092188279      -4.94555139769909       1.29003332251614
F         0.67787510582471      -5.25194226980355       0.74350861631440
F         1.49492047676942      -3.21744913283894       0.87010743886452
F        -0.61152525472640      -2.00192021093758      -5.97244247488609
F         1.26080679130948      -3.14210451076319      -5.84108179270448
F        -0.68203621962035      -4.16510594409351      -5.73580504592680
F         1.62189617828966      -7.66467474155863      -2.69503609485163
F        -0.47542701070511      -7.84287622275734      -3.24981633545849
F         0.04781069952634      -7.00775684482900      -1.29279092064782
