52
C14H18F18NP optimized with DFTB in AMS.
N         0.89563024106123       1.08495306847735       0.66161923373800
C        -0.30225234388798       1.76285076984613       0.07076814051723
C         0.33424561633133      -0.15040557541966       1.28849290526188
C        -1.42414649712760       1.53442598297607       1.07823702790273
C        -1.02823105368418       0.26183695331330       1.84573677808310
C         1.88672232455788       0.77244654945193      -0.42505316799020
C         1.49207038499103       1.96842386158989       1.70098992236738
C         3.08877802204776      -0.05254121911751       0.02849085333806
C         3.97660094276509      -0.33563191847926      -1.18291968634218
H        -0.52627443797268       1.27779066516640      -0.88181270114948
H        -0.07117277935930       2.81309517778438      -0.10384777442725
H         1.02050650030530      -0.51389710529100       2.05309399865793
H         0.22860657529423      -0.90443145804507       0.50541379165279
H        -2.37635177662698       1.41083481786064       0.56032226916217
H        -1.51525430206065       2.38351940567441       1.75816919528577
H        -0.96541883829859       0.46036247355878       2.91725051363305
H        -1.75277365947715      -0.53964041594378       1.69237478052060
H         2.21737427423940       1.72976252019827      -0.82903385366200
H         1.33827415177876       0.23133881936164      -1.20160011893733
H         1.74237201225678       2.92054296188298       1.24276542322385
H         0.77078174161072       2.11992725738639       2.49992224722495
H         2.39256918687157       1.50896744757607       2.09863427849402
H         3.66973076994902       0.49604457467243       0.77186814650181
H         2.75880057771477      -0.99565509315411       0.47438996934018
H         4.84711405790569      -0.90926080823801      -0.86891990449150
H         3.43216287948174      -0.90492054568071      -1.93739751371540
H         4.31810768292401       0.59945469548572      -1.62535865259283
P         4.82436017047991       4.20532009221519       0.45750298615976
F         5.63381882538245       3.52052147007384       1.75546318238105
F         5.78816393461083       5.55353616217414       0.53129960996121
F         3.77948744790466       2.82277018822867       0.34652943537453
C         6.07564224655036       3.24777507574296      -0.70677028544543
C         3.58476228332819       4.89075126768791       1.82569972123201
C         3.85428368792639       5.04907188556424      -1.08387573243183
C         6.85072948405756       2.04429414845469      -0.10358110245044
C         3.99118052047873       6.14380967738508       2.64202143408427
C         2.61981250906948       4.38637042848163      -1.75754532063681
F         6.99377925480225       4.06844946929854      -1.23193342773421
F         5.36354177857715       2.73045743836580      -1.73601711482331
F         3.37501239694697       3.90646884267359       2.73088062868806
F         2.36661306330041       5.14690810123698       1.29629287437563
F         4.73701613158424       5.25209254105417      -2.07867428940550
F         3.44157813407703       6.26668878607099      -0.67574584800233
F         7.44031396235928       1.34859328634907      -1.08073940952729
F         6.02385458498528       1.20358370664065       0.52964591788793
F         7.79211739139634       2.42898834440349       0.74513219208862
F         5.16783332433493       5.97063010060665       3.23056057980292
F         4.05040533434129       7.22515784455192       1.87521789688774
F         3.08324720618961       6.37122288194817       3.59916749651960
F         2.93847394167092       3.26067803056341      -2.39740333803447
F         2.05459211576638       5.20615065641422      -2.63746888016934
F         1.66514167378823       4.05160730612026      -0.86512563707967
