28
C8H18ClN optimized with ADF in AMS.
N         0.38895753072264       0.20625993943644       0.17859311394509
C        -0.59096109512525       1.29625562065094       0.60876986330882
C        -0.24664379656254      -0.66297430167153      -0.90228792584510
C        -1.95908267621938       0.76145551568262       0.98967474042105
C        -1.61096384826704      -1.19896546965638      -0.50268191534675
C         1.58015394942168       0.94703313481517      -0.42218479779359
C        -2.55480291530084      -0.04817874205437      -0.16096426480507
C         0.80605125815022      -0.61839918456870       1.34577084720671
C         2.71070386485470       0.06186946573723      -0.90089850976418
H        -0.68181599407047       1.94576766831944      -0.29137001192005
H        -0.09950701081924       1.83330557802536       1.43588786181929
H         0.46636398064727      -1.47305318137975      -1.10861746941409
H        -0.34965895818855       0.02058889849485      -1.77470162977497
H        -2.58517820629067       1.64268905043890       1.21044858096450
H        -1.92633192148505       0.15882497768821       1.91617759810434
H        -1.54144851013971      -1.91358186120895       0.33923469203536
H        -1.98651152040869      -1.76976496506915      -1.36876405539530
H         1.13420590839430       1.53422500337583      -1.25566702632277
H         1.91854403630154       1.63685574955620       0.36799255410768
H        -3.55477526686155      -0.42590857950764       0.10530606908918
H        -2.64611437168272       0.60749892019017      -1.04697051037278
H        -0.08151481738356      -1.01514978236893       1.84988653079542
H         1.43004689837952      -1.45022777695335       0.99745820924831
H         1.37580627320674       0.01485192203474       2.03934408815578
H         3.47629064664485       0.72071269223604      -1.33852514978502
H         3.19287759887554      -0.51350390042612      -0.09661836021738
H         2.39069304167655      -0.62164229723756      -1.69953560508034
Cl       -0.70546793537028       2.15617428472028      -2.57754513166415
