49
C13H25F2N3O4S2 optimized with DFTB in AMS.
N         2.18022168355286       1.93554833848885      -0.96595699127423
N         0.19953926718223       1.80955043525188      -0.12453267149513
C         3.31789807065846       1.84999876259525      -1.88390997922613
C        -1.20915277957155       1.46187166339295       0.05612856919540
C         3.94803840913912       0.45408310806291      -1.94370437041179
C        -1.38170691736875       0.19656088779854       0.90417737782284
C         3.23124499952750      -0.48057996631739      -2.92200069853176
C        -1.02699101806315       0.41663424726041       2.37630485448930
C         0.96249396430906       1.42455471104974      -1.14859294651342
C         2.20097863398565       2.62891458834743       0.21237100381851
C         0.95275560209475       2.55199141301204       0.74287152319324
C         3.98772946973755      -1.80543427289105      -3.06638168901857
C        -1.10346324800797      -0.89734330329178       3.16117813954600
C         3.23692930456327      -2.76956640871497      -3.98192286114741
C        -0.65816177208025      -0.69561700415483       4.60810535468027
H         4.05223819943652       2.57510418017456      -1.52537618778082
H         2.97197518665681       2.16365751907239      -2.87430109394108
H        -1.63587783593960       1.30800730607453      -0.93851692700089
H        -1.70143007179423       2.31785015460709       0.52639338749744
H         3.96578832845083       0.01978444526753      -0.94262277773899
H         4.98404305656490       0.58695312437846      -2.27008744430998
H        -2.42843169048444      -0.10961017147258       0.81668653248094
H        -0.76187184220861      -0.59729467761475       0.48218280413516
H         3.15172609039512       0.00760644572774      -3.90085257695535
H         2.21807516940800      -0.68382245228124      -2.56577193437894
H        -1.70711840253698       1.15597471157319       2.81380262295367
H        -0.00953913968811       0.80920139301293       2.44958498156374
H         0.64315419280355       0.81504770511300      -1.97549508233581
H         3.09539017063315       3.09513183266489       0.58697579201755
H         0.55467741089669       2.95469011718533       1.65658984105999
H         4.10672752524872      -2.26148586879150      -2.08009672610101
H         4.98647540718613      -1.61260515465062      -3.47277102747904
H        -2.12882943150406      -1.28170158300611       3.13740243235831
H        -0.45413468414052      -1.63736792639077       2.68398828367578
H         3.11073553701631      -2.33894091958879      -4.97691276903978
H         2.25127596732899      -2.99212677620878      -3.57150965148334
H         3.79273968794750      -3.70262486158643      -4.07479265563787
H        -1.29538015400183       0.03484712586228       5.10917767098734
H         0.37174150470918      -0.33926055299000       4.63994353385586
H        -0.71681395050263      -1.63952027848279       5.14974097042186
N         1.80907447423500      -0.28162023005376       1.26366602395257
S         2.96740268011368       0.10085223442856       2.28149134856325
S         1.95778608297571      -1.60965165122510       0.41020209768946
F         4.10307593653511       0.71724944775760       1.26504159809062
F         1.29944404484023      -2.73144057659978       1.36554200243040
O         2.51680052395584       1.25501934389577       2.99559993450965
O         3.63582855275570      -0.94582818710633       2.97133056841697
O         3.27263712649390      -2.08629509505778       0.12967732503155
O         1.02316416515473      -1.49608344957868      -0.67613554993622
