45
C11H24F2N2O4S2 optimized with ADF in AMS.
N        -0.07915200397104       0.27718809809110      -0.70256168903030
C         0.53090930369122      -0.91435196450170      -1.41998659372059
C        -1.54686781853924      -0.09068283087972      -0.64949892251921
C         0.46776839251799       0.38157881329863       0.71267128000494
C        -0.19227363649883      -2.12592386814037      -0.84774193818697
C        -1.58272773599634      -1.60339781429166      -0.40131533242145
C         0.15663578382510       1.54407132159714      -1.49783095328730
C         1.97558187581415       0.63859753939399       0.78833958539297
C        -0.45907990135446       2.78758379347957      -0.89135067727815
C         2.75772827181121      -0.50436213026345       1.43948019644979
C         4.26268597633570      -0.24334805332811       1.42359526482136
C         5.06557204156872      -1.42528955747396       1.95845390876957
H         0.33139110326486      -0.76860164203045      -2.48978093998102
H         1.61706965127224      -0.92153435992579      -1.27955970694288
H        -2.05190138312205       0.51166020270170       0.11617608799143
H        -1.95713169747090       0.16287782630272      -1.63800216796026
H        -0.12050247243964       1.17016344152255       1.20198103381845
H         0.20992132098164      -0.56993581902911       1.20011737945512
H        -0.25765774713552      -2.91237872561743      -1.61214241899164
H         0.36217693456542      -2.55149107346054       0.00135863407990
H        -1.77535748808390      -1.82984190342330       0.65748512481002
H        -2.40097533868721      -2.05345664014632      -0.98135417042929
H        -0.24957184614095       1.33818297859984      -2.49834222356856
H         1.24163735793797       1.64418785418684      -1.62126646841698
H         2.15438146882465       1.57560903232397       1.34319228673706
H         2.39577652602096       0.80301749383204      -0.21540252207743
H        -1.54741910941903       2.70262439223527      -0.75750623584752
H         0.00310895364124       3.06324180830379       0.06676183534871
H        -0.27780005823397       3.61957230296758      -1.58826839722586
H         2.55962055631582      -1.44037989868375       0.88784927507230
H         2.40997443189218      -0.65700714005356       2.47914253720558
H         4.56808168138094      -0.03585012385099       0.38371607742940
H         4.48313785194487       0.66559830476094       2.01380373194936
H         6.14493701648493      -1.21097773938427       1.94480746111572
H         4.78162491186525      -1.66809778463927       2.99578216468853
H         4.89409930558969      -2.31699023527986       1.33481600074781
N         4.30438455425160      -0.68326361281426      -3.72438719264494
S         3.87381114337523      -1.95130625567092      -2.85001229181748
S         3.47057472092141       0.67535339565439      -3.72205138859146
F         2.39566040634510      -2.40325281707932      -3.48524802235693
F         3.65709224175744       1.26618667215910      -2.14537485969709
O         4.75552878647562      -3.05109352626650      -3.16072809079817
O         3.53847622761166      -1.66087521119537      -1.45684753923693
O         2.01979263576433       0.53299618347317      -3.80920998329317
O         4.15698997674394       1.65013530034563      -4.53707252146645
