44
C12H26BF4N optimized with DFTB in AMS.
N        -0.50729173504549      -0.36510241654642       0.10054914895527
C         0.09170233134594      -0.24111614320616       1.47317515592099
C        -1.75967345881734      -1.18497674238962       0.18387855803594
C         0.44713801302818      -1.11300705229280      -0.79847559403155
C        -0.88130656448548       0.34265713925503       2.48653888528672
C        -2.77640760028697      -0.61901335964679       1.17005035922856
C        -2.16500498505747      -0.47925288601504       2.56327034077050
C        -0.80447227734257       0.96652301973711      -0.49586919047238
C         1.75905668945532      -0.38235874192126      -1.07177626526176
C         2.76147785534239      -1.32144179820752      -1.74939431627254
C         4.09548660016263      -0.60773757242035      -2.00716430423484
C         4.86277328955393      -0.30049894601943      -0.71588941416957
C         6.20032818764987       0.37196922811741      -1.01816311949928
H         0.96946264801717       0.40244344795605       1.40379924268962
H         0.39959786393968      -1.24705176155508       1.77300285095316
H        -1.46444210475103      -2.19235284878236       0.49154209857065
H        -2.18650275041104      -1.23448639063563      -0.82101205069996
H         0.64278650914049      -2.07395680972919      -0.31343190001746
H        -0.08654768482834      -1.30120713306600      -1.73506235097789
H        -0.37737433557445       0.33776285224822       3.45600252256939
H        -1.09846647064621       1.38322565399988       2.23612022113109
H        -3.14901253777535       0.34756096197763       0.82169180092883
H        -3.62346569834145      -1.31003440909183       1.19903037491723
H        -1.94548243224055      -1.47384270838006       2.96622464879161
H        -2.88069883581417       0.00727705303289       3.22988496668041
H         0.11611101384052       1.54149938605510      -0.56298263808812
H        -1.23363799249405       0.81542114567858      -1.48495668946564
H        -1.50346643578409       1.50349907680213       0.13760923123818
H         1.58562457400810       0.48297713410584      -1.71447667738660
H         2.18779653551750      -0.01917474183994      -0.13891244811652
H         2.93002145348902      -2.20162144067870      -1.11845948852129
H         2.35020396289861      -1.66836933065915      -2.70386473795746
H         3.90719761451417       0.32215911735892      -2.55342778515157
H         4.71048142308430      -1.25036404395354      -2.64681711993372
H         5.03873815977345      -1.23359428491864      -0.16825774411175
H         4.27078272261389       0.35742841839506      -0.07339159010399
H         6.82118544762292      -0.26999119421417      -1.64591296975236
H         6.04089983358617       1.31767795653703      -1.53740548514452
H         6.73451975492426       0.57109164939960      -0.08909777124422
B         1.91635196319613       2.66434640399526       0.79091356829386
F         2.54945879208093       3.81676237742329       1.14512323891248
F         0.60066732171020       2.60154496204595       1.33441666561890
F         2.60679884384977       1.51491613214114       1.25524380559458
F         1.78683842975042       2.53542717130754      -0.61252918307299
