42
C10H18F6N2O4S2 optimized with ForceField in AMS.
N        -0.02137125549702      -0.00584804577712       0.01055820471370
C         0.90894590217111      -0.84296052057543      -0.80801012847103
C         0.86949330365076       0.85324755765411       0.84948861761816
C         2.31227209559068      -0.29368861245534      -0.64036232615976
C         2.28570475176199       0.32667147315083       0.72788220185129
C        -0.85589257746320      -0.87550649387394       0.90158520953820
C        -0.85710314808462       0.84355431169136      -0.89865129734997
C        -1.84125851310598      -1.79420627238303       0.15739436524597
C        -1.87657380298526       1.74202240394481      -0.17604310416377
H         0.64218026116758      -0.87089419552256      -1.88932709025159
H         0.93546789864392      -1.90247757182955      -0.46353671871343
H         0.56998271603001       0.88557098380133       1.92200455846605
H         0.88872555070528       1.91006850334736       0.49607845947158
H         2.50573888763449       0.48935014117502      -1.40710104635846
H         3.08324603956032      -1.09130396744330      -0.71453620940493
H         2.46749106156394      -0.45324459926019       1.50049738362756
H         3.03945622273033       1.13753211391780       0.82747269489672
H        -0.19618769809218      -1.51797095976608       1.52956240723375
H        -1.44013307887441      -0.25906543599113       1.61980226475561
H        -0.19952577062269       1.49935024752513      -1.51496587443749
H        -1.41312839150335       0.21295355926472      -1.62689085674636
H        -2.27343108611505      -2.52174126790800       0.87633920281451
H        -2.68181405925277      -1.21148107000429      -0.27097791454919
H        -1.34291504774542      -2.36435149911284      -0.65236043944307
H        -2.31495455003830       2.45416590283554      -0.90656284679096
H        -2.70933332978452       1.14177397894561       0.24314213696005
H        -1.40493560003784       2.32966533211881       0.63720682236924
N         7.88138270450163      -0.70897621621805      -1.58110098269501
S         8.98795596608091      -0.07936289384673      -2.61354466280158
S         7.75741995836880      -0.23345493586144      -0.01722330710279
C        10.44033592893459      -1.10977000987796      -2.61460983559407
C         6.57423080705144       1.09229145059856       0.10035821770126
O         8.41048996472774      -0.05411519774607      -4.00018813752699
O         9.36511834492839       1.31601673417785      -2.20090351171672
O         9.08792685541764       0.23691872314338       0.50062043270382
O         7.27609079212290      -1.38974841151119       0.81228456563688
F        11.37079222498394      -0.59704285723310      -3.49831689110887
F        10.09726263817441      -2.39084097587560      -3.00280639588648
F        10.98596933862358      -1.14677892274682      -1.34588560939227
F         6.33125319229275       1.38059179823105       1.42986549183979
F         5.39512789682313       0.71139194809029      -0.50912952313926
F         7.07036761476034       2.21768588920622      -0.52873551724008
