67
C19H28F18NP optimized with ADF in AMS.
N        -2.06208092503540       0.49860129125446      -0.01712433954644
C        -3.50844191400705       0.91933905521530      -0.23550824143940
C        -1.41564626405061       1.46006898508949       0.96131596242044
C        -1.37604413609938       0.61221159299613      -1.37223117059182
C        -1.96258773496769      -0.91650109254267       0.52491427557580
C        -4.29934284989462       1.01494254641905       1.05350086964601
C        -2.18353965516408       1.60287717121778       2.26906282561112
C        -3.64305768013429       1.99180803103469       2.02857889438635
C         0.05747108523521       0.11879433941617      -1.43756235101375
C        -2.59239222051391      -1.98512055211464      -0.34633605619322
C         0.67303011677685       0.52736082685830      -2.78169527908877
C        -2.38343964752036      -3.37140119378590       0.26645887306304
C         2.09771318325829       0.00797632766394      -2.94637271281847
C        -3.02629894245147      -4.45621958581657      -0.59516808201344
H        -3.94089565628247       0.21894737361707      -0.95545644008029
H        -3.45328289282509       1.90048987437844      -0.73313814635211
H        -1.37196190735448       2.42763825595404       0.43619562819921
H        -0.38938724385453       1.10925661620078       1.13182192047325
H        -1.43229317655228       1.68063370474862      -1.63227769563507
H        -2.01060741055156       0.07478953782306      -2.08746495721287
H        -2.43537087864309      -0.90713087607857       1.51508370644895
H        -0.88774171395454      -1.10435300373671       0.67162075198678
H        -4.42240801301975       0.01952226406353       1.51312953905482
H        -5.31424368690306       1.34649730540010       0.77983363171697
H        -1.66392429833716       2.37197659364931       2.86443672514752
H        -2.12351190662713       0.67178688058505       2.85690995881662
H        -3.68268902859276       3.00978987757596       1.59915261932923
H        -4.19218915367485       2.02494314188472       2.98209728914283
H         0.09255493600349      -0.98037670776789      -1.34911652813121
H         0.67218188432253       0.53883524477647      -0.62268055644225
H        -2.16940726514008      -1.97227337408735      -1.36260693397567
H        -3.67189796597937      -1.80768317225545      -0.46155246094286
H         0.66388107465339       1.62915103069875      -2.85905230659391
H         0.03793328423088       0.14937363389965      -3.59834136155477
H        -2.81601621227482      -3.39573853149484       1.28367946549401
H        -1.30190102157491      -3.56995104413504       0.37769760100913
H         2.12348528998090      -1.09242999395398      -2.90443570544215
H         2.75956679782728       0.39537279790662      -2.15510724806607
H         2.51530661776007       0.31445061956615      -3.91671516905153
H        -2.59897109084642      -4.45381710908595      -1.60970145937594
H        -4.10859830766207      -4.28426049493386      -0.69581038809014
H        -2.87316588806285      -5.45437645340180      -0.15916660264631
P        -4.76726543140298      -0.78120275158616      -4.30184184118995
F        -4.91143408801182      -2.43518685933829      -4.38672582620885
F        -4.07392759734349      -0.94123581515121      -2.75180103040652
F        -5.42358493639561      -0.54079642883288      -5.80285564415624
C        -2.98057417055182      -1.01155610570569      -5.14038396488616
C        -6.60068538976269      -0.83696296873097      -3.53598108613793
C        -4.50255103810703       1.19474420177596      -4.02440940751798
C        -2.70362527148844      -2.32488991661443      -5.94612380618873
C        -6.78248817093159      -1.36953995425121      -2.08204488751356
C        -4.98115976925343       2.24034144021186      -5.07329926896736
F        -1.95265285584147      -0.99199535544961      -4.19635937896775
F        -2.72123228375701       0.00638971599397      -6.02505733114267
F        -7.35413508064687      -1.68285341052843      -4.31788395166238
F        -7.25387519512349       0.37632008685038      -3.55427160876535
F        -3.14807963367933       1.45947110328818      -3.85040821401285
F        -5.09296604954353       1.58153322539082      -2.83039530414285
F        -1.51661648683053      -2.18203174832906      -6.61257367148556
F        -3.65814197780986      -2.58047068501176      -6.86089331469197
F        -2.56846350803684      -3.39771380824617      -5.12939908369956
F        -6.17155265673704      -2.55875302034043      -1.88062121826815
F        -6.29979684336749      -0.48675550784277      -1.15547326600334
F        -8.10543457913097      -1.53327620375539      -1.81330519501226
F        -4.68272680174222       3.49667043824869      -4.61059266394791
F        -6.31366345781369       2.18323686343466      -5.26885934840535
F        -4.35921942718751       2.08923202361756      -6.25956314544247
