55
C17H32F3NO2 optimized with ForceField in AMS.
N        -1.08908284361546       0.82451217228935      -0.18003368852538
C        -1.57415140708290       1.86421556323367       0.78583012024312
C        -2.06600519105658       0.72910061273780      -1.31339906366874
C         0.20907357820551       1.29208613324489      -0.77753568590528
C        -0.93025418148398      -0.48915771814648       0.53708005029371
C        -3.02034202694498       1.64141649300493       1.27664052609779
C        -3.51112303312853       0.44047941034109      -0.87601234786183
C        -3.99385928654045       1.50048931538389       0.10916550617773
C         1.41393350998783       1.37333100476735       0.19291996139680
C        -0.34397349524347      -1.64938615043030      -0.30433244983913
C         2.65857719787495       1.89339177431563      -0.54072416988854
C        -0.21377789467894      -2.91880083536694       0.54816621132544
C         3.87951318781364       1.92276697837484       0.38539346791639
C         0.36912986441115      -4.07938691469069      -0.26693432565722
C         5.11493663767637       2.44375710754907      -0.34435784406124
C         0.48490289372362      -5.34342208708691       0.58086782716454
H        -1.53276079552487       2.87707820500650       0.32250496507917
H        -0.92838393560762       1.89982853277796       1.68979899593132
H        -1.75767547271321      -0.03589539475714      -2.05563276325693
H        -2.08748062144939       1.68980379270551      -1.87972290034641
H         0.07478276921625       2.30448768883256      -1.22520020042692
H         0.49749071087936       0.64084767077448      -1.63279746041260
H        -1.90075428473689      -0.84053485458407       0.93780193124621
H        -0.29522811987213      -0.35606475064224       1.44018640463878
H        -3.32722341979455       2.51425682621663       1.89285475429563
H        -3.08373207530815       0.75090865364327       1.93607657883131
H        -3.60397433901355      -0.57390741092954      -0.43680054744454
H        -4.16683053598541       0.46153749981018      -1.77358253691059
H        -4.09080627174809       2.47776352861545      -0.41349827562969
H        -4.99742216363615       1.21747149226951       0.49434075917359
H         1.19175892185821       2.06130149955531       1.03397979536716
H         1.65205075385933       0.37098180945883       0.60364233513514
H        -1.00770343198302      -1.87973817135790      -1.16180872978965
H         0.66237061710821      -1.38810917353667      -0.68923887266856
H         2.45974910362166       2.91988274744098      -0.92018774010349
H         2.87760105376084       1.23240488393525      -1.40837371732568
H         0.44950442790864      -2.71217177240641       1.41701460054748
H        -1.21751498245332      -3.20835110424632       0.93067841371480
H         4.08846209111714       0.89523274407616       0.75314361583293
H         3.67358083184493       2.57795089524500       1.25986823207618
H         1.37868849846621      -3.80356396156881      -0.64265946737392
H        -0.28596412554781      -4.29087472093446      -1.14017332761590
H         5.98043899414518       2.46022398781241       0.35139599605192
H         5.36329312457309       1.78364712526016      -1.20275165336839
H         4.93860472655360       3.47592424421779      -0.71529635821748
H         0.91176150794978      -6.16567443943566      -0.03123915269895
H         1.15247734982523      -5.16581821395020       1.45092417296074
H        -0.51649117585994      -5.65688943504830       0.94589206789922
C         6.88623986972644      -0.22338257991265       4.59057602683325
O         6.19588850738743      -1.22846717251723       4.65523459371064
O         7.91272871821270      -0.15374325622855       5.24719982289199
C         6.48036678810404       0.92419989545682       3.71352505577301
F         6.27985570609507       2.05080684567296       4.48874660485717
F         5.30929554747765       0.62860561013984       3.04025741143858
F         7.47806031202536       1.17922182781141       2.79098662639531
