59
C17H36BF4N optimized with ADF in AMS.
N        -0.38869524468600       1.91864389271676      -0.06763637844314
C        -1.30385597030677       2.45867734941528      -1.15747671198413
C         0.01056729416698       3.07083270879279       0.84494419410844
C        -1.06088304732751       0.83744953564864       0.76909793395582
C         0.84296704562594       1.37559595326577      -0.76285823518199
C        -2.50884368332416       3.19929007853309      -0.61423500841038
C        -1.17802883821523       3.83880560206830       1.39869181784541
C        -2.08253534413396       4.35729079171486       0.28469546925705
C        -1.57612271762957      -0.36225984482276      -0.00230689499549
C         1.85220313557305       0.67465788419563       0.12896108146341
C        -2.08032085381417      -1.41600979280408       0.99127721277818
C         3.09846898332265       0.30460718369861      -0.67629550735587
C        -2.69619586326338      -2.62724882327874       0.29505070278823
C         4.14548441486830      -0.41698609882777       0.16846778822598
C        -3.23445555616662      -3.66714764510271       1.27670448031683
C         5.39434099595987      -0.79020637390642      -0.62587477002164
C        -3.84071710378435      -4.88119890201744       0.57698176419681
C         6.43812745510482      -1.50927934885800       0.22343047361872
H        -0.66499776726555       3.13087396169522      -1.75670487007353
H        -1.58599740960123       1.59921702036554      -1.78122109967040
H         0.61716030312185       2.63736709847667       1.65148736099296
H         0.64996800870187       3.72533780320430       0.22764011843987
H        -0.30585726503323       0.53884370631286       1.51097425290560
H        -1.88551092907885       1.30007194327397       1.32292862007794
H         0.48008478454267       0.68898537299063      -1.54214585836679
H         1.30803017847542       2.23744181037460      -1.26785376973478
H        -3.07668723649760       3.56874188743559      -1.48488459671930
H        -3.17735917278585       2.51734690726484      -0.06313257619944
H        -1.76379990041647       3.21732313858858       2.09587416080216
H        -0.76481922123439       4.67392730670792       1.98952124695506
H        -2.97559884460721       4.82010542729830       0.72924737026458
H        -1.54956991144024       5.12364980453033      -0.31179669019929
H        -2.42541021667875      -0.06093717665335      -0.63697641032967
H        -0.79925660403375      -0.80851460532020      -0.64965000268722
H         1.41627015302059      -0.24306962105208       0.55531714323570
H         2.14884543217294       1.32164978997687       0.97092871807122
H        -2.83219590960756      -0.94128127398259       1.64254390151160
H        -1.24496008049886      -1.74540952607162       1.63756955234874
H         3.54477998855183       1.21925620463140      -1.10890584034225
H         2.80882964236663      -0.33788315319432      -1.52835122261450
H        -3.52374636666352      -2.28496042512253      -0.35365413036627
H        -1.94828919882750      -3.10367865456657      -0.36856978624084
H         4.43275248396833       0.22473033521673       1.02256161412966
H         3.70013598619680      -1.33163397288408       0.60285227024515
H        -2.41866827133324      -3.99552881816416       1.94656579103955
H        -3.99439109189407      -3.19046700052178       1.92065218035055
H         5.10332493707639      -1.43041811385788      -1.47846176097449
H         5.83487667846515       0.12592109964835      -1.06012164028148
H        -4.22273588023375      -5.61300393996386       1.30542543928121
H        -3.09314023849791      -5.38971876401936      -0.05373171105646
H        -4.68004227959909      -4.58241415472430      -0.07152518252542
H         6.76546202636337      -0.87684451188032       1.06411744153724
H         6.02781047648833      -2.44105333478016       0.64500340856210
H         7.32648503531162      -1.76920511888436      -0.37125601941484
B        -4.26461608189841       1.75558494255711       2.41140908411474
F        -5.31878675452639       1.30980188618869       3.20819526167273
F        -2.99805646508792       1.52543280491281       3.06818410639630
F        -4.36620035584986       3.14310700266797       2.11490741524095
F        -4.22794784200250       1.02742485939246       1.16188731815911
