43
C13H10F18NP optimized with ADF in AMS.
N        -1.22658624689750       1.71295230812894       0.26054771191676
C         0.18234431749961       2.05327488478423       0.60706754903019
C        -2.08056175332589       2.68281725037820      -0.12152486956470
C        -1.63905442860461       0.43074839120924       0.39556573072025
C         0.44370393980645       1.88307274859429       2.09331045448488
C        -3.40937207903830       2.38666813189544      -0.37380181417576
C        -2.94968138966072       0.08821986095011       0.14527911275800
C        -3.85301422904005       1.08015463735089      -0.23864833936340
H         0.82191252944556       1.40648313823353      -0.01415682105517
H         0.33254015199669       3.09528497876717       0.29659162642546
H        -1.68762918660491       3.69276377426789      -0.18391934821318
H        -0.88609230052102      -0.28494848788584       0.71932295658015
H        -0.22297506558979       2.53119135098086       2.67436244295083
H         1.48404969462137       2.17091021328811       2.30268411403971
H         0.30707207924178       0.84082767973515       2.41622691764344
H        -4.07889183004712       3.20327443497523      -0.63837782533295
H        -3.26197176853984      -0.94779730545494       0.27163853077185
H        -4.90045983225522       0.83242012323206      -0.41939816474483
P        -2.98634694959709       4.99686515678363       2.85599583119583
F        -4.06633853692465       4.00721681835905       2.03053892916199
F        -4.22381192228175       5.75454688809399       3.64409686268116
F        -1.67878861677535       4.23545480930992       2.05732803702433
C        -2.91958430964088       3.57747338998393       4.25671549313259
C        -3.17368702294112       6.20378571000883       1.27501370191365
C        -1.71223682366556       6.18658447229115       3.83552718547178
C        -3.50887149811519       2.16768632125425       3.93815450796236
C        -4.46561132191105       7.06553431753347       1.17226370341667
C        -0.17897573522215       6.15259358575616       3.54304200423999
F        -3.58329598506967       3.95882536060846       5.39657254313948
F        -1.60726164310137       3.30960390315262       4.61204610272642
F        -3.18268074087592       5.42680568680841       0.10771703883383
F        -2.12758080034592       7.07286677222858       1.10147359051237
F        -1.81383378908262       5.94491358082728       5.18846885055735
F        -2.09845758322889       7.49399336358282       3.65146072910276
F        -3.26231749038050       1.33018786535138       4.98511509112988
F        -2.91413648510987       1.60500137578003       2.84212988451471
F        -4.84251247756249       2.18277514640534       3.74201211703786
F        -5.58006918483115       6.30417257045896       1.26402822958544
F        -4.50135275526487       8.02216192733025       2.12138812507182
F        -4.49405778368442       7.68951858034142      -0.04421048998254
F         0.37465367119043       4.96213440946527       3.88674640831108
F         0.43649864446333       7.11688034510015       4.28000832078437
F         0.11549747557223       6.38496429835404       2.24141463640329
