43
C13H27NO2 optimized with ForceField in AMS.
N         1.99894316608131       0.43465994636884       0.08184496084134
C         2.23341659563923      -0.84894811802175       0.79910213156348
C         3.11712407602007       0.55589543766802      -0.90279800252212
C         0.69477786331119       0.42370969640412      -0.64984369449927
C         3.66661680490565      -1.26652128251515       0.54053294410650
C         3.95581334688354      -0.70925726712338      -0.82772917293936
C         2.05697111968561       1.57379707641896       1.03451887810135
C        -0.55297774458535       0.27597052731178       0.25264755655857
C        -1.81305149200287       0.07761881945546      -0.59986697355100
C        -3.06054971060443      -0.08503505579363       0.27634420452449
C        -4.31703821903098      -0.24133255324201      -0.58782096851920
C        -5.56650132240945      -0.39656866539601       0.27399092389607
H         1.57984898477940      -1.66336302372630       0.40950199442951
H         2.04426599534412      -0.77805488158739       1.89472240946877
H         3.78324912195937       1.42439695148402      -0.68793999657265
H         2.76782162831839       0.70040232255972      -1.95137842852810
H         0.69391212843023      -0.41033006481115      -1.39018795299429
H         0.58327952591002       1.36513017196086      -1.23567223248941
H         3.78731924809327      -2.37151128089804       0.56701872254220
H         4.33829825912721      -0.79655499096093       1.29218338842053
H         5.03716622524003      -0.49800633675165      -0.96661134840385
H         3.61810118944436      -1.43132289735532      -1.60410697179866
H         1.32203886862970       1.45743144214387       1.85911237161710
H         3.06004123458423       1.64260526277922       1.51305654477187
H         1.85284799522101       2.53597317557267       0.51383924227605
H        -0.44144809432657      -0.59057209662073       0.93744099647595
H        -0.68750665057762       1.19430698044289       0.86252102291126
H        -1.69284040489033      -0.82942420055582      -1.23267486813201
H        -1.94375049642486       0.95800631649062      -1.26734205969082
H        -3.17180841230446       0.80779186965188       0.93057348864711
H        -2.94206060998871      -0.98391424401901       0.92126017196122
H        -4.43878234744225       0.65305678304084      -1.23731494574332
H        -4.21574736769350      -1.13724007379332      -1.23875671863561
H        -5.70357533303142       0.49715220384877       0.91935625332962
H        -6.45752136736363      -0.50173445340241      -0.38023441802260
H        -5.48520123975733      -1.30214677785560       0.91209491146249
C         8.92658056370977       1.06439251614765       1.28619003508334
C         7.54806389251959       0.82657209379205       0.75705313229687
O         7.09904050852245      -0.30690087444525       0.72228161121317
O         6.86909766025679       1.76037285488704       0.36134457961276
H         8.97354186243761       0.75426875124534       2.35114673196815
H         9.65809919366344       0.46856186651951       0.70076855900617
H         9.19691086021616       2.13931900008073       1.21165963675629
