36
C10H19BF4N2 optimized with ForceField in AMS.
N         1.91174107409426      -0.94180364706557      -0.22668196034132
N         3.13741981667543       0.90946579165033      -0.11997505517373
C        -0.37016519699887      -1.87288495724916      -0.05388187161091
C        -1.03777700137714      -0.51632145355959      -0.32373984733156
C         1.00483060615139      -1.97336777140199      -0.72706453749970
C        -2.45231567646576      -0.46701763757502       0.26322958369823
C        -3.10385865071755       0.89654913884547       0.00216982089392
C         2.36630467121832       0.13116170513852      -0.90324561185231
C         2.41660952213312      -0.84090057975069       1.01985319770287
C        -4.50577090314084       0.96176366967331       0.60060836728563
C         3.17669533316397       0.30904520151660       1.08563772474180
C         3.76970614701339       2.17068899640405      -0.48287852745161
H        -0.25891473426047      -2.02552299860825       1.04206457971776
H        -1.01400883499518      -2.68864039869113      -0.45024514865292
H        -1.08795366802558      -0.34120791672895      -1.42133160747664
H        -0.42821805408870       0.29279079378548       0.13605678307902
H         0.88427920568766      -1.87465800177777      -1.82868058368517
H         1.44361304363043      -2.97451142230853      -0.52714568910993
H        -3.07196272987467      -1.26567998068561      -0.20172189545788
H        -2.40149645282194      -0.64979765597703       1.35988204755408
H        -2.48390826728562       1.70280590248861       0.45089514233107
H        -3.17076115628923       1.07724183084798      -1.09307025262705
H         2.12014884587814       0.35323405099526      -1.93460662443525
H         2.22934359583871      -1.53804178337850       1.82617457814898
H         3.70468339585331       0.68499373159878       1.95205778087629
H        -4.46651043129606       0.78679296264140       1.69711956816501
H        -4.94094872456890       1.96675392026095       0.41689067019411
H        -5.16114975501162       0.19867629422595       0.12891651382524
H         4.86917958175194       2.08831417662540      -0.35166793818875
H         3.55069102468165       2.42554001745247      -1.54229264919563
H         3.38213041034593       2.98245439864428       0.16847314585892
B        -0.56513894069143       1.05899741139170       3.82511790077219
F         0.11162947525725       2.03316294306537       4.60631680676483
F         0.38556505368244       0.23227518406320       3.17169093030295
F        -1.37295773250353       1.70922213189679       2.85621564913337
F        -1.38510471684427       0.26210950344590       4.66741749034406
