33
C9H17BF4N2 optimized with ADF in AMS.
N         1.74844959815218      -0.42448171391166      -0.48247813690378
N        -0.29862381030917       0.27868468942418      -0.27563703979199
C         2.91663382139125      -1.31694925001488      -0.34043270521051
C        -1.73012977694081       0.32545079849606       0.05055917284856
C         0.48864060201236      -0.80391396167100      -0.23444915497764
C         4.14042041292329      -0.80693006265719      -1.07984859876262
C        -1.97719775341311       0.55812292195659       1.53978705613529
C         1.77147699224888       0.94155310504017      -0.65037786896164
C         0.48837898581243       1.38235418775308      -0.52748520828119
C         3.97207850833732      -0.70892205491266      -2.59321460168870
C        -1.67667067221860      -0.66246889880943       2.40079020402167
H         2.60444499958494      -2.30017497622593      -0.72629449175354
H         3.10292044250665      -1.38071442414537       0.74229756840815
H        -2.17565963864301      -0.62323052668966      -0.28819224878582
H        -2.15778858815327       1.13394167913329      -0.56099837750752
H         0.17044036836968      -1.80942375860251       0.00503898404600
H         4.44705395637518       0.15642319735814      -0.63922249238946
H         4.95697853609635      -1.50792808329170      -0.83693971042632
H        -1.35006170388365       1.40115488424897       1.87357075034870
H        -3.03443677270436       0.85934733736707       1.64266083326570
H         2.69080526760366       1.49223415170902      -0.78562065424411
H         0.07746487182723       2.38319345645857      -0.55389313041452
H         3.16052703285633      -0.01939672247709      -2.87333606834930
H         3.73795430471188      -1.69423517780110      -3.02757974227105
H         4.89730090439394      -0.34506512292473      -3.06511608195340
H        -0.60806119552366      -0.92332542792445       2.36377257561132
H        -2.28751878466652      -1.52835743818351       2.09207728422007
H        -1.90485088212155      -0.44487623541532       3.45496563295445
B         2.05215282482951       0.42727786609022       2.70506975063081
F         0.99018505681335       1.32015462821690       2.36374604107025
F         2.37057301197810       0.51910128289789       4.06078497229845
F         3.19042606396673       0.72448555743640       1.88509976531033
F         1.62342705708650      -0.92145294242838       2.38869023540337
