38
C10H22BF4N optimized with DFTB in AMS.
N        -0.54069828805963       0.38043423713109      -0.25457169616896
C        -1.50600244262462       1.08819073895865      -1.16606145176984
C        -0.93674593366325      -1.05483671516264      -0.11481227552418
C         0.80960529339938       0.46364481228303      -0.92384379628293
C        -2.95712044217245       0.94177666053720      -0.73152273881030
C        -2.37072505905776      -1.21991082762623       0.37613083490078
C        -3.34642713310300      -0.52692667467639      -0.57420823946687
C        -0.49454628715394       1.05366411692193       1.07352031783920
C         1.98598299696083       0.04220416725165      -0.04989473292083
C         3.26814860889031       0.09331273721914      -0.89030477719254
C         4.48855218677798      -0.28270946031066      -0.05342714179678
H        -1.36714040553690       0.66163646147295      -2.16290242741648
H        -1.21770068203020       2.14173273278977      -1.18154047960220
H        -0.23811953626927      -1.52812560451122       0.57814756687821
H        -0.82606068566874      -1.51782842532135      -1.09967191339739
H         0.94618024609953       1.50533543593694      -1.22101742930882
H         0.75415695804062      -0.15716414694100      -1.82232667377551
H        -3.57468172442917       1.40885178797491      -1.50273858634172
H        -3.13588943159747       1.48004942475142       0.20266074945777
H        -2.47675335394015      -0.81733441921571       1.38696340378040
H        -2.58582868949231      -2.29093811401879       0.41914090791322
H        -4.36241073077337      -0.60343492335790      -0.17974233748438
H        -3.32068788464371      -1.02370740826726      -1.54972600213316
H        -1.50421845545734       1.19238597605532       1.44865578411944
H         0.07001338999867       0.43588890745890       1.76792729115987
H        -0.01680150483282       2.02361462449724       0.94941265907578
H         1.84584228077968      -0.96747091587745       0.34921521475124
H         2.09074623769231       0.73882613723232       0.78519624510355
H         3.39389893305614       1.10590622149210      -1.28487128257328
H         3.17880143477988      -0.59295038987645      -1.73943521743025
H         4.38651268126328      -1.29407824019463       0.34338187720331
H         4.60534178834100       0.40877219568202       0.78156062226183
H         5.38710909588531      -0.23941095626258      -0.66870561610768
B         0.53725892755836       3.90225197589521      -0.64852572703813
F         0.40735710050879       3.29288897468672      -1.92295882050564
F         1.47277725039285       3.12382901349862       0.08781340677823
F        -0.71765854806939       3.75652531104915       0.00100232620454
F         0.91890144275062       5.20478948874400      -0.73799762087949
