25
C5H12F3NO3S optimized with ForceField in AMS.
N        -0.00773210585841      -0.00777700176152      -0.00506115624182
C        -0.92494489960550      -1.11620521657098       0.34148708219415
C         0.66256916997177       0.47885920230368       1.22051060115611
C        -0.77829628970087       1.09729705156000      -0.61844002533842
C         1.01216508387983      -0.49022577319860      -0.96286322310962
H        -0.37144329273230      -1.96013988896978       0.81087912480583
H        -1.70572314655808      -0.77814182453148       1.05929475220708
H        -1.43938602431956      -1.50636483139590      -0.56509802913220
H         1.36631676656511       1.30668691390790       0.98334670496759
H        -0.07917923337246       0.85528525106538       1.95860338600768
H         1.24507397842479      -0.33422381406714       1.70833375287811
H        -0.11261430699822       1.94857529513539      -0.88528441794909
H        -1.28992816857187       0.75895399443358      -1.54731151663550
H        -1.55592767194333       1.47843777566425       0.08100966870657
H         1.71509340167704       0.32667922227530      -1.24193639033738
H         1.61044458019308      -1.31987853348967      -0.52378264309754
H         0.53729664227485      -0.86655462891615      -1.89629864293364
S         0.79780827459162       3.68528477881953       3.87175362575310
O         1.52434275602981       4.90636973258022       4.45386710127300
O         1.14262553347222       2.56862206681145       4.86803922900246
O         1.64851306359833       3.33276371239059       2.64372597935861
C        -0.97445285400559       3.92327834266759       3.55135062725362
F        -1.14351092913093       4.91841981353216       2.60842847962908
F        -1.60929311491220       4.28823132657988       4.72261068995617
F        -1.52516227106912       2.74762006137431       3.08025646602605
