60
C16H34F2N2O4S2 optimized with ForceField in AMS.
N        -0.01183842199892       1.99244877194375       0.00855987872716
C        -0.68693860329605       2.90360018207300      -0.96668373851246
C         0.65105524620634       2.90179671377592       0.99379036607558
C        -1.02916014214421       1.14877193778394       0.71712005930492
C         1.01684870981416       1.17042556230608      -0.70861676038689
C        -0.21159341673615       4.31998274761118      -0.70511868416107
C         0.15055909550680       4.31301240517743       0.75237632807179
C        -1.77140240481835       0.13468573315925      -0.18762290085433
C         1.76886009669935       0.15500606825762       0.18558309105567
C        -2.87481168754871      -0.58506829739073       0.59845425467857
C         2.88661672633145      -0.53838138637001      -0.60334217944903
C        -3.62731585054496      -1.58703638615245      -0.28525557621042
C         3.63036624097204      -1.55786598556098       0.26682178082852
C        -4.69367777120609      -2.33550299561115       0.52322357430296
C         4.71602598739087      -2.27802573906313      -0.54088418239242
C        -5.45013330245096      -3.33309546113988      -0.34811837608736
C         5.45267004505623      -3.30175425695663       0.31656090205927
H        -0.49196799690123       2.63354426863205      -2.02974865652275
H        -1.79444469634914       2.90750489710992      -0.84442445717013
H         0.46419889485338       2.61432894289967       2.05373409372575
H         1.75806415362403       2.92590968983458       0.86822968753265
H        -0.55658383899692       0.58921826137679       1.55419425696418
H        -1.78722015454712       1.80958924884544       1.19853430725884
H         0.55223499623820       0.61489797698469      -1.55279519627748
H         1.76773598449868       1.84610157817640      -1.18067155454538
H         0.69139785678404       4.53492747425470      -1.31831852341286
H        -1.00103188400562       5.07215847567361      -0.92371305445144
H        -0.75618878661235       4.50306243564967       1.36831722277841
H         0.92637227200710       5.07603322030351       0.98164477283963
H        -2.22503717978807       0.64892961377555      -1.06038649044243
H        -1.06370940508114      -0.63165317771992      -0.56577171989668
H         2.20925050978119       0.66301584262578       1.06852799963223
H         1.06957288618571      -0.62609537788285       0.54870478767843
H        -2.41742539604356      -1.12453591943104       1.45695812194638
H        -3.59517236202090       0.16319085918338       0.99593034409369
H         3.60796177815641       0.22309605779842      -0.97315954103389
H         2.44400148658486      -1.05984302258647      -1.48046455749578
H        -4.11427118330892      -1.04356807103913      -1.12481366371148
H        -2.90657816278590      -2.32021795437247      -0.70978162965154
H         4.09697584053898      -1.03453341925920       1.12984429370373
H         2.90744022657800      -2.30633155627200       0.65943057002087
H        -5.41945622342150      -1.60987193665234       0.95080877737754
H        -4.21156410569032      -2.88541172979496       1.36072635931845
H         4.25446614128947      -2.80239567715851      -1.40592562877773
H         5.44930713787663      -1.53810313058106      -0.92933590930460
H        -5.96917781024027      -2.80587012086357      -1.17652462167521
H        -6.20843148580199      -3.86156887590478       0.26718471657424
H        -4.75014154964009      -4.08435833129995      -0.77164796629643
H         4.75050261707497      -4.08856786228710       0.66479521355125
H         6.25470353062615      -3.78004988677823      -0.28407967097228
H         5.91309120071851      -2.80834776433551       1.19808749148796
N         6.77416195007432       0.06387996783327       1.15141140528886
S         8.34524414477625      -0.36251820306380       1.31584524938804
S         6.32922735080581       1.63258221374325       1.01718804366730
F         8.84326110261730      -0.02731035084025       2.87904212963798
F         6.73322153007063       2.18933849630759      -0.50944420942909
O         8.50169903367289      -1.83208413650916       1.04708596313668
O         9.19373405487145       0.42040406257204       0.35352274584259
O         7.04970447899346       2.45879787121944       2.04543337510382
O         4.84601214310380       1.75737822548933       1.21838680126723
