48
C12H26F2N2O4S2 optimized with ForceField in AMS.
N         0.99654883545174      -0.28129343997871       0.04529545527149
C         2.06708522327263       0.11869682577031      -0.91883081378367
C         1.67007310407581      -1.20570433368241       1.00945036507300
C         0.48696551259848       0.92365896070679       0.77805295237960
C        -0.09045195084456      -1.00530591000213      -0.69142081960553
C         3.25985068474955      -0.79283241108678      -0.70586227325431
C         3.16424814567239      -1.16208593530995       0.74724881483049
C        -0.26311762263449       1.94193097626892      -0.11468769066553
C        -1.28198644771135      -1.44409195675945       0.19403175014887
C        -0.56991993367374       3.22973243585202       0.65770171160684
C        -2.26908762272696      -2.30469976883742      -0.60225784681508
C        -1.31185195225676       4.23368614362049      -0.22012216241032
C        -3.44876084975978      -2.73246529841088       0.26626319643607
H         2.42314294485493       1.16044744286761      -0.74392676875524
H         1.74113969470788       0.07708691335899      -1.98271816836310
H         1.35155475866285      -2.26468448480804       0.87238092505350
H         1.46640380366540      -0.95567126591772       2.07555082030053
H        -0.18920458869648       0.62118055845669       1.60804631941041
H         1.33891529139448       1.44533054829122       1.27298797086483
H        -0.48567338506103      -0.37735731393320      -1.52033896720910
H         0.33474548124480      -1.91001902693122      -1.18479349402963
H         3.15670109734494      -1.70344421022344      -1.33660566533808
H         4.22111666197807      -0.28358744782044      -0.93532022852585
H         3.63364104391077      -0.36909123145614       1.37061398229446
H         3.65355725429703      -2.13896060329577       0.95348772496476
H         0.34239327247431       2.19456184858992      -1.00999049445807
H        -1.22522253450584       1.50825891896971      -0.45857671626134
H        -0.92442907887942      -2.02361899092211       1.07043111925883
H        -1.82810392131571      -0.55359175986512       0.56782316437909
H         0.37755474492935       3.69297952692940       1.00936811961177
H        -1.19750018576829       2.99400298775307       1.54478570507764
H        -2.65356965697327      -1.72640500572357      -1.47065032249614
H        -1.75489424643016      -3.21350811609478      -0.98404191110610
H        -2.27041300510885       3.80036939746318      -0.57730291112832
H        -0.68820389495781       4.51420927277318      -1.09559818675132
H        -1.53294112583271       5.14969227933110       0.36675402560329
H        -3.98705719822229      -1.84058922346364       0.65235276728228
H        -3.09424258452842      -3.34480417449010       1.12262667589271
H        -4.15553623641295      -3.33975686770634      -0.33704680591732
N         0.32712572322567      -2.99492499400860      -5.93142116685601
S         1.57311904725383      -3.19814530326243      -6.97173429439710
S         0.35903575457647      -1.83121253937932      -4.78202643901649
F         2.91002324409537      -3.75371875006369      -6.13215390173411
F         0.25393307396707      -0.32927332969419      -5.51279547106009
O         1.18914855141839      -4.19940365143073      -8.02383462277819
O         1.91714257764965      -1.88698282378712      -7.62138610850198
O         1.64661286767666      -1.90785840741674      -4.01030007466086
O        -0.80385581264764      -2.01830050374041      -3.85010027026156
