38
C12H22N2O2 optimized with ForceField in AMS.
N         0.36034786192076      -1.61738877055492       0.33143756987716
N        -1.76144099733781      -0.95609535964058       0.26929288143050
C         1.75828729627083      -1.72534454332535       0.74395308742340
C         2.64277528567060      -0.75871159843644      -0.05514494545304
C        -2.99958914385315      -0.25938448033746       0.61377910838530
C        -0.62549309238108      -0.98069791896938       0.99268903410601
C         2.25551603373682       0.70730844256137       0.19113988254839
C        -0.17199858969934      -2.01850636554054      -0.84073256531501
C        -1.48985521733393      -1.61077529543069      -0.87806287054123
C        -3.22281066721277       0.95444171983122      -0.29785623153883
C         3.21337628998827       1.66214103751807      -0.51370722198108
C        -2.09423725386048       1.97887565288367      -0.18042591727837
H         1.85452022105856      -1.50271035602171       1.82963466555263
H         2.10835953921636      -2.76814182349755       0.58499128636574
H         2.56152853999170      -0.99159814078702      -1.13955820734458
H         3.69941697781267      -0.91687634977280       0.25226831087982
H        -2.96638377829886       0.07846570142015       1.67318876186796
H        -3.85510716406541      -0.96118537794030       0.51211671128443
H        -0.50147932991917      -0.49392338541964       1.95233934469217
H         1.22935461328782       0.89483966431532      -0.19029254174594
H         2.27033958393436       0.92347482700289       1.28162424251724
H         0.36582863178658      -2.53838789741793      -1.62296618408501
H        -2.18608515874650      -1.75027333183101      -1.69489057532856
H        -3.30972316459230       0.62212697114712      -1.35485463607845
H        -4.17947280148669       1.44297060954593      -0.01346542824227
H         3.19839399218496       1.48457197289780      -1.61007169026681
H         4.24671509988257       1.52291727866364      -0.13123734826079
H         2.90148054605418       2.71034484298936      -0.31981120401741
H        -1.14857925538225       1.56130635111054      -0.58520258310185
H        -1.94240289391553       2.27169830761314       0.88030425400762
H        -2.35278841049213       2.88570015420210      -0.76622971577740
C         5.57068957626420       5.59171776052929      -1.71668584039666
C         6.12290840264041       4.27035039439520      -1.28471377712388
O         5.99164802635891       3.90393494895411      -0.12812712353769
O         6.70499948800503       3.55501069322294      -2.08422622016335
H         4.46724712716066       5.59193285225551      -1.59416298255311
H         6.00745836166599       6.40085460757336      -1.09419402137366
H         5.81420513508514       5.78972867179058      -2.78259470973338
