41
C13H24N2O2 optimized with ForceField in AMS.
N        -1.28823275540787       1.29978871568338      -0.24401117028791
N        -2.68354682001298      -0.39249786695990       0.12103627024729
C         1.09828048254652       1.93693518817179      -0.20690314831947
C         1.57308510983026       0.48102777151765      -0.32188513575204
C        -0.26959860343281       2.13973253623666      -0.87147542203974
C         3.00217694929723       0.31156862573667       0.20306654484609
C         3.46307654979424      -1.14372612663877       0.05661687154067
C        -1.82127564174359       0.16957468430882      -0.74759617933264
C        -1.82793566075936       1.45603299278275       0.98161730191182
C        -2.69521291988738       0.40571232714414       1.20782784834992
C        -3.39059251669309      -1.65947955438272      -0.04479773610794
C         4.86810856284196      -1.34077464206137       0.61596280502693
C        -4.86231814673259      -1.40991491772402      -0.34572730704083
H         1.83121189417478       2.60693892687000      -0.70715258507580
H         1.03938344073074       2.23009898342857       0.86405365311545
H         1.53341456911686       0.16299622288592      -1.38556625995203
H         0.89405589600047      -0.17501581023387       0.26543148597492
H        -0.56951696559711       3.20668203755299      -0.78802464986632
H        -0.19192943710188       1.89787922740079      -1.95463726487388
H         3.03632978172573       0.60689855001090       1.27504178143579
H         3.68866859836007       0.97317062299450      -0.37012500357083
H         3.46084923595284      -1.43006275126911      -1.01802861441305
H         2.76432841886390      -1.81628894030219       0.60051553946101
H        -1.56461240365609      -0.24999351512353      -1.71268611186998
H        -1.59223273400333       2.26051598531693       1.66648658292741
H        -3.26960643445527       0.22288746900237       2.10699944228650
H        -2.94384260916253      -2.23697108166580      -0.88339087460007
H        -3.29269975059682      -2.26688726619832       0.88104359879308
H         4.88986395567841      -1.09418939418782       1.69885035737979
H         5.59308548948061      -0.69527784408947       0.07609821169238
H         5.17151850920536      -2.40127975104426       0.48759207999531
H        -5.33743752386450      -0.85615722212072       0.49130473812315
H        -5.38481404403699      -2.38058316197708      -0.47751265049487
H        -4.96177316458530      -0.81970615018094      -1.28156350475125
C         2.08577178465148       0.16128675920655      -5.99800232899796
C         1.99444107928292      -0.09965158322603      -4.52717050629209
O         2.89940969747060       0.25388043843755      -3.78887539826201
O         1.01794565889190      -0.66507535889760      -4.06135659001729
H         2.13725802914559       1.25526764952095      -6.17995426303868
H         2.99960843352138      -0.31857143464621      -6.40686902242177
H         1.19916702066562      -0.25001820588017      -6.52649693622903
