34
C10H18F3NO2 optimized with ForceField in AMS.
N        -0.38270343772888       0.38018941752895       0.06626934038094
C        -1.42310543660711       0.62637961572777      -0.96886367989147
C        -0.85423345330008      -0.81093206054717       0.83212836795998
C        -2.69676008837377      -0.05254573439732      -0.51077389200866
C        -2.20617411105545      -1.23957215563269       0.27584570903145
C         0.92609641464552       0.12224516913418      -0.60817867867429
C        -0.29614516560841       1.56924439129331       0.95447481727476
C         2.12745053747214      -0.02839611026951       0.35321160203811
C         3.34746100870790      -0.57369566379282      -0.38442727567556
H        -1.14411432500461       0.17733314940465      -1.95130910885046
H        -1.60501956562449       1.71002002044604      -1.15635756064633
H        -0.97187858279290      -0.59326723684771       1.91922760131074
H        -0.15624415094187      -1.67476775460637       0.76013181161796
H        -3.33016650537059      -0.36397484936588      -1.37006792586703
H        -3.27356563771123       0.62960705414436       0.15138648545446
H        -2.91928762369309      -1.51408364523443       1.08325930642912
H        -2.07231742244037      -2.10794175578461      -0.40746035743008
H         1.15779785066056       0.95327734472887      -1.31409963454508
H         0.84762170216814      -0.80412984304209      -1.22442954788007
H         0.11694256614799       2.44576243954858       0.40695936854620
H        -1.30022020633346       1.84827459109135       1.34597000561953
H         0.35167773252526       1.37132673164003       1.83601231438036
H         2.39722542324033       0.96242315273990       0.77700094569607
H         1.88704375605037      -0.71309216569466       1.19281235897468
H         4.20979175468206      -0.63740798204721       0.31222098658181
H         3.13564127886111      -1.59018485230951      -0.77979067701987
H         3.61864289126349       0.09677284839105      -1.22785903593160
C         7.45438290636261      -0.79270974798584      -1.59980648657814
O         8.25354547159607      -0.89399713032413      -2.51724681059800
O         6.27773885759392      -1.04997495035822      -1.79561764319067
C         7.90890258774657      -0.35751429144349      -0.23729662300464
F         7.23556860575988       0.79295417163282       0.12998466962475
F         9.26952566343029      -0.10260563056469      -0.23558144115760
F         7.63747038437210      -1.35476268130352       0.68105344722862
