28
C10H15NO2 optimized with ADF in AMS.
N         0.18837563066684       0.30168557679428      -0.25194912794034
C         1.41964208627223      -0.21345857427983      -0.85059365184499
C         2.57722239883327      -0.33795057146275       0.14166465379032
C         3.80744132779446      -0.97448204979953      -0.49578467645656
C        -0.06951346229080       1.69195855837545      -0.34094288199790
C        -0.54193353445403      -0.51641312727281       0.56642034571679
C        -1.40376140732744       2.06813893567079       0.14379570221758
C        -1.69960794046010      -0.10985364721309       1.15126005545336
C        -2.14856629068804       1.21724840219851       0.89353969170175
H         1.19845549888857      -1.19739325003078      -1.30140789035487
H         1.69751537444890       0.46888390780679      -1.67112676890243
H         2.24214098046169      -0.93403489367693       1.00805644917788
H         2.82558710505062       0.66249738249838       0.52607884683453
H         3.57810037570106      -1.97232298185450      -0.90322837989009
H         4.61360893894056      -1.09142596895697       0.24368491027473
H         4.19556912294947      -0.35451810928171      -1.31976834586606
H         0.16036930449578       2.05602289694115      -1.35336013697252
H        -0.15071318521840      -1.52743465871266       0.68090134883810
H        -1.74541097058195       3.07728306806020      -0.08846160484471
H        -2.26845851914323      -0.79682322934756       1.77366898122550
H        -3.11345234268757       1.54462186237449       1.28707582196861
C         2.25947642575643       3.33943600372898       2.25262732038950
C         1.23020110164521       2.37862474444352       1.70274450603363
O         0.65988879451022       1.54557668982334       2.38522313759655
O         1.05232129010649       2.57206094623902       0.37796066358850
H         2.66912990912258       2.92778325905802       3.18349614126933
H         3.06138561169840       3.53944983160990       1.52902167761660
H         1.76875546200879       4.29898328686628       2.47979010207721
