43
C13H24F3NO2 optimized with DFTB in AMS.
N         0.12135607767688       0.47098303952756      -0.40408526568195
C        -0.76649642054104       1.21223240510294       0.54936349486071
C        -0.55561122769014       0.39422656347905      -1.74661358651210
C         0.42538824177366      -0.89833859262121       0.14433537920426
C         1.37967649390304       1.27524580833926      -0.60613072103209
C        -2.16571576651692       0.61579873105125       0.66039646291523
C        -1.94472698641522      -0.22160124893099      -1.68157734033199
C        -2.83895267913861       0.54453441800906      -0.70921766893826
C         1.42873816140146      -1.72602063938514      -0.65885840060958
C         2.26254467916610       1.47016843146814       0.62251499281257
C         1.61358171326929      -3.07866388908024       0.02597892011896
C         3.57465074070240       2.10336857015930       0.15373331309056
H        -0.27782676973948       1.21461792828101       1.52582974367134
H        -0.83206027064627       2.24132382407750       0.18487613286275
H        -0.61666688311098       1.41755327366633      -2.12483708434566
H         0.08773146073451      -0.18261080000297      -2.41603773300118
H         0.78888607984810      -0.75476903744008       1.16552161733978
H        -0.52198634808846      -1.43795221733091       0.20253750694534
H         1.96115610883999       0.76307888384153      -1.37134994398383
H         1.07226108346123       2.24555439529372      -1.00278716062577
H        -2.12517942154280      -0.37838718361721       1.11344585019919
H        -2.74335137603799       1.26059437910602       1.32828826975286
H        -2.36578985922202      -0.17523258903925      -2.68894579465047
H        -1.89058632483112      -1.27517239814248      -1.39484627796524
H        -3.80723501483119       0.04688963427398      -0.61833091147124
H        -3.00969674216443       1.55808110607810      -1.08615501641871
H         1.07206703685381      -1.88465390882689      -1.67858990356190
H         2.39513773072192      -1.22232146562653      -0.72377403180691
H         1.77747675467029       2.11640923182678       1.36076571626123
H         2.48407918960152       0.51256060185736       1.09963691615617
H         2.32774909828996      -3.67325014262440      -0.54186952303879
H         0.66846672215656      -3.62200703091611       0.07382688514828
H         1.99501455470363      -2.95161074837642       1.04049606554099
H         4.25793880753065       2.20977030078382       0.99529909841881
H         3.39057218438553       3.08811104700918      -0.27625657506457
H         4.04023458674111       1.47323184933078      -0.60560695321326
C         2.43692180804606      -0.07690164414898      -3.41991634179156
O         1.52002862499661      -0.85958643425226      -3.65961136175558
O         3.33936194128380      -0.09492137117639      -2.58597133737535
C         2.31127194706627       1.32252554640821      -4.22283939218251
F         3.43198198409680       2.05101347953599      -4.26399805474624
F         1.39403255914136       2.07779703271269      -3.53202229933710
F         1.84593890325415       1.22293914151893      -5.47150635575714
