36
C8H18F2N2O4S2 optimized with ADF in AMS.
N        -0.22713928032264       0.48174829755342      -0.20429501820154
C        -0.99128199368956       0.68652278003383      -1.50147337981582
C        -0.75325622658761      -0.84786617316316       0.28733798529959
C        -2.39610752708065       0.14814241715378      -1.22781395890964
C        -2.24873970800301      -0.82506564642862      -0.02850489642740
C         1.26278814794448       0.44062179388670      -0.48269178066098
C        -0.57282311324995       1.57981642445105       0.75945095984554
C         2.14102134694815       0.27736589990374       0.74364907437933
C         3.59254104468401       0.09110256254814       0.29645400785925
H        -0.46193117580582       0.09566219332242      -2.26258959036726
H        -0.95150190334798       1.74564797464958      -1.78690149361343
H        -0.50940082199596      -0.97036229072426       1.34961210032059
H        -0.22931831913840      -1.61887475886722      -0.29729565842180
H        -2.78415742998965      -0.35416193208836      -2.12467890895424
H        -3.09149132023988       0.96587326248038      -0.99058290102457
H        -2.82825853142946      -0.47483127297502       0.83784125791583
H        -2.60067711660938      -1.83933580919204      -0.26370999660330
H         1.49842579421231       1.36899372310050      -1.01882660651474
H         1.40279457302811      -0.39938860848388      -1.18237024020770
H        -0.21582418689254       2.52800189750710       0.33144713104136
H        -1.66129485554701       1.59849008942389       0.88852667675497
H        -0.08197881231056       1.37883152404153       1.71762357142735
H         2.07911595067796       1.17954543135523       1.37210975180096
H         1.81888403996616      -0.59201841208598       1.34321952929063
H         4.25092101437027      -0.01867378714074       1.16951817963670
H         3.70381654141020      -0.80731941038463      -0.33159333638815
H         3.93032619165701       0.96586237462400      -0.27919535301079
N         0.87622925133635       3.77503447708898      -1.06956172050666
S         0.66019006237929       3.86247247725266      -2.66127433420422
S         2.33157137443658       4.00640787442182      -0.40404995163129
F         1.32892205592914       2.40825976970590      -3.18202432497928
F         2.57284914389103       5.61740174058514      -0.55441806348165
O        -0.76052553644537       3.65374781444532      -2.89898381956975
O         1.41172649642801       4.87126280934937      -3.37152607226075
O         3.44108401935129       3.39323710197542      -1.11294221456091
O         2.16246624643505       3.77613463357403       1.02114144404378
