43
C11H24F6NP optimized with DFTB in AMS.
N         0.16436633374340      -0.19885505980156       0.51382497264692
C        -0.93652291605334      -0.46916723127633      -0.45828118245975
C        -0.47439418653587      -0.45337762956983       1.84412819171961
C         1.28613807845272      -1.19625415999411       0.34365158894292
C        -1.71732227398981      -1.64649080080434       0.12660843012097
C        -1.36537505245113      -1.67097016160680       1.62370239099316
C         0.71490935209503       1.19343251500775       0.36592382582156
C         2.11813281776688      -1.03606676011724      -0.92420740635463
C        -0.17169565956588       2.32026748034132       0.88931478206279
C         3.21139508357430      -2.11324056436511      -0.92171314954867
C         0.43332555112722       3.65765165495935       0.45936812697430
C         4.11717572935646      -1.97845467041893      -2.14271381161141
H        -1.56163149144808       0.42418350627774      -0.51551263628826
H        -0.51588900552788      -0.67306442973019      -1.44259476730320
H         0.29960282673755      -0.59479344380209       2.59710601435327
H        -1.08187822279893       0.41268964694818       2.10530160602080
H         0.83701122234417      -2.19104754432152       0.36985635887226
H         1.93388361772538      -1.08038255855016       1.21249276345683
H        -2.78728238895953      -1.49989186708995      -0.03089678290906
H        -1.42936921589065      -2.58250129496076      -0.35563051784313
H        -0.84231109075803      -2.59288968984912       1.88445649026157
H        -2.25813093464447      -1.60135010717886       2.24720838910214
H         1.66640535231767       1.21253429071487       0.89765219189383
H         0.90012087422163       1.33608026435312      -0.70120377094779
H         1.49821784063599      -1.13436343692475      -1.82139063960662
H         2.59991394820358      -0.05655049545157      -0.94057359167551
H        -1.19182741745615       2.23921738444610       0.50118262512423
H        -0.21154139188639       2.29235204199444       1.98114618716582
H         3.80793167795894      -2.00749482564764      -0.01083778727359
H         2.74862126338340      -3.10595975190381      -0.91229690283945
H         1.45022204232306       3.75064721402992       0.84007924403094
H         0.45664927462469       3.73885223837787      -0.62789561514845
H        -0.16507436112949       4.47566837023197       0.85853478877311
H         4.88458656208144      -2.75181106814719      -2.11911308490104
H         3.54247648567552      -2.08515079387910      -3.06431221545468
H         4.60623014921766      -1.00396129386659      -2.14730291213475
P         3.77770481973873       0.32084274365048       2.76581271376965
F         5.38332210286996       0.17030893627924       2.59062740255100
F         3.61329400602254       0.56171265672687       1.10705996413331
F         3.56781594505093      -1.30666910946136       2.49355860184615
F         2.08774417784946       0.45515333143007       2.88364632083169
F         3.85703213317648       0.06057423837298       4.36755927571019
F         3.88954521252083       1.93712639097670       2.96921526582097
