37
C13H18F3NO2 optimized with ForceField in AMS.
N         2.37306523831754       0.02669293446499      -0.51803239625356
C        -1.44337714043883       0.05834803481051      -0.73410849851754
C        -0.04802208004460       0.04466863576775      -0.10024460046436
C        -2.52552458021867       0.01835014777676       0.35040006517126
C         1.05442953284979       0.07612514863340      -1.16221188840018
C        -3.93024052655807       0.01978217733903      -0.26016416942517
C        -4.99709433924338      -0.04457908478611       0.82936600335849
C         2.96463449564199      -1.18276096101641      -0.27321559695857
C         2.98683946539801       1.18838474418953      -0.13536058223812
C         4.20784085391258      -1.24927070212163       0.36085902979473
C         4.23077007275720       1.15748819556948       0.50033134156999
C         4.84324820364223      -0.07021318348681       0.74703417963335
H        -1.55589947706028      -0.82499643577061      -1.40105057990446
H        -1.56462901889275       0.98114736550487      -1.34350228845014
H         0.06389583411759       0.93042795813251       0.56249366523054
H         0.06800683615886      -0.87408044796192       0.51604237841352
H        -2.39436383496363      -0.90011298339178       0.96451431451843
H        -2.41367309722223       0.90661264370556       1.01076532873954
H         0.96059271670933       1.00026711446977      -1.77550267554017
H         0.93379366817428      -0.78511523638265      -1.85700359995155
H        -4.07854506996998       0.94602646255813      -0.85701138073908
H        -4.04926319358229      -0.85731185534917      -0.93310442646856
H        -4.90667764014082       0.82890766909403       1.50996744866084
H        -6.00568459159928      -0.03157023496028       0.36547129649212
H        -4.88902746904704      -0.97994324736265       1.41919080362712
H         2.47193967995215      -2.10431570124073      -0.55994966955991
H         2.51203823433046       2.14595790747055      -0.31373697114447
H         4.67109871103914      -2.20795468815081       0.55543595579919
H         4.71245209903364       2.07818398796709       0.80336669030282
H         5.80562472560049      -0.10817620309692       1.24135126980316
C        -1.34749970049035       2.05453857202563       4.57131962026992
O        -0.70604937486838       2.97764029222595       4.09491037970650
O        -2.23597949467687       2.28889587478987       5.37459166121715
C        -1.05149982335827       0.63801035713412       4.17700738256583
F        -0.70848116268541      -0.09252711762473       5.29956051494737
F        -0.00417517455632       0.59190239860203       3.27325112774163
F        -2.17371147311783       0.07648760717166       3.59735626355232
