27
C7H13BF4N2 optimized with DFTB in AMS.
N         0.65442294288722      -0.73458052490051      -0.15476318094222
N        -1.28029895635848      -0.06316221771602       0.51104651739523
C         1.96342687426352      -0.76696509881889      -0.80768794998845
C         2.92010866162304       0.26377262873873      -0.20062752891594
C        -0.27436683929517       0.20384951966791      -0.32599919846139
C         0.24370651351698      -1.60795308993400       0.81086593333895
C        -0.97807844892840      -1.18876857797103       1.23327644704351
C         2.51756394259877       1.70982055522825      -0.47147610111105
C        -2.48188438499890       0.73447052986081       0.67533412335846
H         1.81339829739928      -0.59123682102255      -1.87763483026298
H         2.36913656570628      -1.76811778348695      -0.64809842546720
H         2.98722960444929       0.09673839557167       0.87668286796262
H         3.90451602719186       0.07071992209954      -0.63480332194033
H        -0.24591498005167       1.01198767171567      -1.03528012454950
H         0.85455768364509      -2.44081952547599       1.11556721088435
H        -1.64128997085901      -1.58058713346261       1.98362940131619
H         1.61975630419610       1.97498551689451       0.08928194964346
H         2.33160093307368       1.87754475013455      -1.53456879989467
H         3.32088703657221       2.37297643666896      -0.15167622468795
H        -2.49775009256272       1.51714264590648      -0.08114099507779
H        -3.35771043733131       0.09465829958305       0.56490570683647
H        -2.48166940539607       1.18254380614563       1.67000439774661
B         2.96515239882873      -1.72978808906747       2.51008943596749
F         2.93928268587884      -2.54058715763253       3.61537451043867
F         1.82620430242349      -0.86061525666604       2.51222036636439
F         2.85180692422329      -2.51716847952087       1.31946449468177
F         4.11017534470406      -0.95229660004032       2.42360553832132
