35
C11H20N2O2 optimized with DFTB in AMS.
N        -0.09743913768848      -1.16039680189466       0.49471706069378
N        -2.18153071143532      -0.71589421423021       0.12337610500209
C         1.30482136118297      -1.04612916392658       0.86763338399638
C         2.23228503769092      -0.93337411597725      -0.35374593534227
C         2.61937220751908       0.51926609428398      -0.64759685878820
C        -0.98030641105892      -0.14447435548582       0.37668315586500
C        -0.68998837842089      -2.32863607802754       0.04011683279241
C        -1.98743445127664      -2.05260014060127      -0.19156220567277
C        -3.42550703311682       0.01087642115385      -0.07509523793781
C         3.47742371544876       0.61277221985535      -1.90805524237859
C        -3.62423871366556       0.39403413317128      -1.53954241903162
H         1.40892181520192      -0.17488963337878       1.52228395420719
H         1.55287844773284      -1.94112423622108       1.44745961985190
H         1.73380215177503      -1.37081836394091      -1.22262476159552
H         3.13820252731727      -1.51564520389636      -0.15597969905912
H         1.71567638354560       1.12086074154878      -0.77548303429625
H         3.17637635140876       0.92632568570860       0.20432919643992
H        -0.88048344853338       0.77702458793170       0.93004139528911
H        -0.13197488779741      -3.24279425977612      -0.05371328764366
H        -4.24431251028175      -0.63122703011383       0.26662744417902
H        -3.39660718816740       0.90587600087063       0.55386421167613
H        -2.79635215266990      -2.67668996669545      -0.52729781284761
H         2.93721473060103       0.21028409693917      -2.76537784689740
H         4.40335472937801       0.04803806399453      -1.78604734126831
H         3.72919069982512       1.65374344409409      -2.11235678719749
H        -2.86324346498305       1.10882143270409      -1.84592422211877
H        -4.60809236479458       0.84627897475938      -1.66267358280156
H        -3.55542839485688      -0.48834694180545      -2.17455082755398
C        -0.15568544558604       1.09843759654017      -3.58707948925479
C        -0.31020054811213       0.20058448354241      -2.34435533033689
O        -0.56813896244111       0.86114305172458      -1.27860486972710
O        -0.17394721604162      -1.00846115071512      -2.45624221933146
H        -0.90517217380234       1.88697462149061      -3.57451023405894
H         0.83281505330096       1.55497775515753      -3.56214302796114
H        -0.25158624009801       0.49717281011571      -4.48840115309169
