37
C13H21NO2 optimized with ForceField in AMS.
N         2.37210104275925       0.03122294506140      -0.52382983109894
C        -1.44482840734142       0.05460789376930      -0.69513542925879
C        -0.04378333023537       0.02053050277093      -0.07506059972857
C        -2.52163254897536      -0.00845255157864       0.39366682787910
C         1.04551728182811       0.08272391821968      -1.14962257432874
C        -3.92497788181110       0.01052570144085      -0.21950486725538
C        -4.99753297046194      -0.05651755214035       0.86332974634262
C         2.96345365801338      -1.17851680488631      -0.28081808478501
C         2.99114402127801       1.19291960595635      -0.15094799256483
C         4.20462712695296      -1.24535429651114       0.35643747873997
C         4.23180374838540       1.16135020028930       0.48901778487275
C         4.83839362797161      -0.06670804317407       0.74554553236847
H        -1.56605912343702      -0.81099638899910      -1.38324205301156
H        -1.56845684920987       0.99214656620118      -1.28110759120512
H         0.07580573830568       0.88601593384731       0.61313278572693
H         0.07700861998492      -0.91543622038136       0.51326157620397
H        -2.39231796303425      -0.94097771173538       0.98668975118690
H        -2.40646436873623       0.86227516887891       1.07672920613029
H         0.93662155797193       1.02143922152642      -1.73529490986007
H         0.92388292174512      -0.76177732875418      -1.86456542171451
H        -4.06430390982267       0.94344385838603      -0.80822189012447
H        -4.04746864585117      -0.85865444747862      -0.90206556011176
H        -4.91179537302167       0.81663094620597       1.54488914021922
H        -6.00287720111341      -0.04344647937812       0.39246102538105
H        -4.89227491189747      -0.99273954416425       1.45219474296513
H         2.47163843553258      -2.10009781614002      -0.56892134169088
H         2.52087748169076       2.15149062509240      -0.33555573529563
H         4.66559692284670      -2.20426079843295       0.55488852756725
H         4.71283918223170       2.08233846424632       0.79156701508647
H         5.79446644221606      -0.10505353300440       1.25131055721064
C         1.65008421771044       3.32333118389279      -4.56610950215862
C         0.89608571122265       2.05968110867155      -4.83730077494199
O         1.18156121528493       1.37222762658899      -5.80439776669244
O        -0.01873876237005       1.72171547474932      -4.10372863493219
H         2.70642085898974       3.21786837251672      -4.89330342638237
H         1.17997406864331       4.15986266563167      -5.12392827538891
H         1.63597419345373       3.55670761241551      -3.48002405584999
