37
C9H17F2N3O4S2 optimized with ForceField in AMS.
N        -0.05951969472596      -1.32924394603716       0.33529121536979
N        -2.07847193510415      -0.40215805618320       0.23779795182452
C         1.29012322659420      -1.65627629844751       0.79218120868133
C         2.34746935864885      -0.91000008747530      -0.03238615588155
C         2.21801726611472       0.61261009548030       0.11702581348021
C        -0.97376066059629      -0.58418456784088       0.98712245391670
C        -0.60785694673941      -1.63686165402092      -0.85752754653341
C        -1.85965602765866      -1.06004334462886      -0.91885907760629
C        -3.23655206601958       0.42279723481626       0.57235462832646
C         3.31548399976518       1.33797836711474      -0.65486213453727
C        -3.21825727067199       1.71282388836148      -0.24011139518368
H         1.40584133707088      -1.39118022973567       1.86622746566249
H         1.45255902270416      -2.75150885185048       0.69768044255522
H         2.25243100425544      -1.19229993916255      -1.10367033689941
H         3.35353689103424      -1.22888948797523       0.31720070096989
H         1.23250873546879       0.94931589997024      -0.27141628654877
H         2.28660566803249       0.89149850396828       1.19105178240552
H        -0.81961160559358      -0.14507703063573       1.96498226050720
H        -0.12249715697784      -2.21214685491530      -1.63499276216470
H        -4.17082129473047      -0.14230194415884       0.36508068420810
H        -3.22096027994615       0.67926858335557       1.65429280764502
H        -2.54645814417927      -1.09447874318748      -1.75440119964713
H         3.24869876036525       1.09711903596359      -1.73717331901891
H         4.31547631201918       1.04120819846560      -0.27367786569437
H         3.19732858899522       2.43493135544974      -0.52749914949641
H        -2.28275583405051       2.27592246713133      -0.03477237841380
H        -4.08639493151293       2.34535956379181       0.04010960491215
H        -3.27545849847811       1.48566424553202      -1.32569121890417
N         6.51750351942496       5.29492204784938      -1.67269529610642
S         6.78721246810857       6.17027773496240      -3.02843955394842
S         6.67174664483375       3.66624207053256      -1.67103909975123
F         5.54583030762380       5.90349959983983      -4.11907706667254
F         8.26578290701602       3.25563776601959      -1.97579506093303
O         6.84018475365194       7.63141713481738      -2.68236458761697
O         8.08583294438757       5.75093004673973      -3.65879585238461
O         5.80384542343217       3.07275949548594      -2.74525679492491
O         6.26311745773753       3.12291896500735      -0.33138639639662
