28
C8H18ClN optimized with ForceField in AMS.
N        -0.37419286629398       0.36121401596391       0.07001833643072
C        -1.42597050210325       0.61553028990290      -0.95341712344874
C        -0.85726557077837      -0.81047543930438       0.85861260392684
C        -2.69368738840629      -0.07098679935222      -0.48900695546151
C        -2.18780464485341      -1.26501605227073       0.27497670920281
C         0.91887395063971       0.06555589368192      -0.62012463202951
C        -0.25068791814669       1.55966333972941       0.94101705133463
C         2.13801199406541      -0.06589484796342       0.32166395528052
C         3.35247076120533      -0.60186746517990      -0.43229288791196
H        -1.15656399404489       0.17785890094176      -1.94378988556577
H        -1.61281703567337       1.70013897234040      -1.13020485321845
H        -1.01510308775135      -0.55761383267777       1.93304604932684
H        -0.15039811831411      -1.66940153740404       0.84063712950388
H        -3.33912192929884      -0.37238537554157      -1.34261409575174
H        -3.26139340015630       0.60118504043974       0.19156768872899
H        -2.90462770472939      -1.57819415054810       1.06445511093787
H        -2.01931439934503      -2.11138323384433      -0.42827119614308
H         1.14543804547605       0.86923955113048      -1.35719833786520
H         0.81887795906622      -0.87901442207087      -1.20472062998321
H         0.18436811631380       2.41634218783944       0.37985479241535
H        -1.24507052282100       1.87294395037493       1.33217823385921
H         0.39337418376229       1.35530295873295       1.82387136806905
H         2.40588850299765       0.92986303102224       0.73465607776933
H         1.91741094387397      -0.74769688491718       1.16911706819401
H         4.22545840458460      -0.65045292133836       0.25204565844073
H         3.14742115572472      -1.62301275042179      -0.81859307383769
H         3.60388606246777       0.06728046493233      -1.28294394661029
Cl        2.08353583783876       3.68575914150221      -1.82725081579362
