38
C12H18F3NO3S optimized with ADF in AMS.
N         2.56356962560897      -0.16409014421360      -0.59371321985189
C        -1.25288238085889      -0.08423338454529      -0.86052120205264
C         0.11712359159669      -0.02246265069642      -0.18648141210776
C        -2.38302586098983       0.31060845190103       0.08768816258588
C         1.21638440918255      -0.26630352247006      -1.21360773101723
C        -3.75351858238453       0.28068127757414      -0.58644920609165
C        -4.88462433169324       0.68329651874990       0.35598043273697
C         3.32728613156478      -1.26727696960956      -0.42834758942074
C         2.99154606451583       1.05405008559091      -0.19102535851135
C         4.57939103632928      -1.17725855532578       0.14831035105145
C         4.24081725994755       1.18527105875812       0.39297399313463
C         5.04987164876814       0.06773561051683       0.56406549874982
H        -1.43404666918114      -1.10229253009768      -1.25381143532449
H        -1.24157459308284       0.60474108904371      -1.72319251807447
H         0.25636266061369       0.98691365940199       0.23645117367329
H         0.19244470043685      -0.75883963819330       0.63545860693769
H        -2.38968721080990      -0.35963627240278       0.96905215950154
H        -2.18774300439484       1.33080109558931       0.46656985030191
H         1.15627124588389       0.49893135929131      -2.01025588541806
H         1.14721363449089      -1.26854165788890      -1.66179354509477
H        -3.73402026879788       0.95874751258064      -1.45902193278470
H        -3.94105945409747      -0.73422356242036      -0.98397038092044
H        -4.72745142915854       1.70299372111441       0.74313053272950
H        -5.86092461037236       0.66355378123315      -0.15225497771465
H        -4.93985522129049       0.00164159848825       1.22081050062887
H         2.90103630114303      -2.20505488010902      -0.77923996117311
H         2.30482154762427       1.90102996655366      -0.38764839086044
H         5.17979047189551      -2.07954236498897       0.26210840574851
H         4.56829136927706       2.18065398308845       0.69377702085481
H         6.04093066068059       0.16167886136149       1.01103772400370
S         0.89445833160517       3.35541165881432      -2.33525719981154
O         1.13784374350567       3.17243055942374      -0.87626594429056
O         0.35559026850367       4.65191904736182      -2.72523010499259
O         0.31946474045946       2.15992229848599      -2.98688842450353
C         2.65387716910097       3.36656708515325      -3.02036662533230
F         3.21508592495186       2.10674254370509      -2.94827037844048
F         3.46880514619489       4.19530080975255      -2.31019825809827
F         2.68944020753069       3.74843234622764      -4.31640160305088
