38
C10H20F3NO3S optimized with DFTB in AMS.
N         0.11137159467607       0.31887463117138      -0.18006381110072
C        -0.97943409089646       1.22839218252718      -0.68107465606842
C        -0.40306197167490      -1.08926990542292      -0.16388316348051
C        -2.28018808347794       1.10976147962639       0.09721748029446
C        -1.69212548303622      -1.25392982771487       0.63415710551699
C         0.56526694400858       0.71175483734141       1.19981935403403
C         1.24350288532027       0.40995454965023      -1.17446315355409
C        -2.78589446537751      -0.33051349360497       0.10232433567133
C         1.26173699637927       2.06210941158997       1.28747866665720
C         2.44849993956404      -0.45963396198595      -0.85865157068999
H        -1.14530168495425       0.96913122480716      -1.72876895385297
H        -0.59950505812002       2.24852839599444      -0.63933404376185
H         0.37801838585985      -1.72795374095077       0.25323422453894
H        -0.57376733573663      -1.37277097740697      -1.20612360228950
H        -3.00641646135154       1.75812382916521      -0.39927526349049
H        -2.16068610777813       1.47221451996238       1.12168873878322
H        -1.51438397350461      -1.05811653775713       1.69523035725292
H        -2.00351783395903      -2.29761906637881       0.53785372884788
H        -0.31867488617989       0.71854885630926       1.83987054132908
H         1.23202372999346      -0.07909197660263       1.55303792862989
H         0.82774513935001       0.13652171506565      -2.14611856611475
H         1.53669831914432       1.45905943802108      -1.22191927919456
H        -3.67668643301986      -0.41459070815662       0.72908504493630
H        -3.05441917408792      -0.62994815133099      -0.91573025642972
H         1.46116691785208       2.25840614511550       2.34105046233074
H         2.20701113052691       2.06924989082037       0.75028582882015
H         0.64027280862392       2.86520408547447       0.89834825209383
H         3.19203731945367      -0.26543592022863      -1.63151816600455
H         2.89193249232578      -0.21368092649929       0.10479846010434
H         2.20900287544190      -1.52224627217729      -0.87907457010450
S         0.63867192412075       3.50695957963487      -2.76857322375200
O         1.06853121163081       3.50500152152737      -1.36856280490311
O         0.14639030274508       2.20520441408732      -3.20800779525949
O         1.51872362122047       4.18102747001268      -3.68178598687609
C        -0.90736189645519       4.53119889253982      -2.69280477120816
F        -0.64636875894414       5.81638167355859      -2.50447869905097
F        -1.65087641857544       4.10849250606843      -1.65497610512243
F        -1.64346222490754       4.40511721684670      -3.78924256033240
