41
C11H21F6N2P optimized with ADF in AMS.
N        -1.17177214440074       1.19458444134784       0.13925923647855
N        -2.40213640484481      -0.48407749045837       0.76301184635829
C         1.25978687950880       1.73194808449405      -0.01691456107973
C         1.84481523038130       0.38997100403127      -0.44533218923554
C        -0.14649148341566       1.99220927226236      -0.55165844425802
C         3.23851829636244       0.15681187135442       0.13468039817355
C         3.83175463027472      -1.18586983486014      -0.28550561099485
C        -1.51523177536657      -0.06811808304452      -0.14757220173344
C        -1.84063421432925       1.58191388142207       1.28177571878866
C        -2.61364189682426       0.52817542865054       1.66974504444057
C        -3.01697108166514      -1.81901767083701       0.80348227028888
C         5.19752232809335      -1.44460312353705       0.34493137777369
C        -4.34330072980836      -1.85008626925240       0.06269579017345
H         1.90086408127996       2.55581924562477      -0.37992484346461
H         1.24234323075863       1.78967557964648       1.08492495088749
H         1.88677548242774       0.34348608484455      -1.55220775883998
H         1.19788292036952      -0.43062880303792      -0.09362844812618
H        -0.44357941726357       3.04405652233440      -0.42303382100042
H        -0.21503104742390       1.75514249696482      -1.62518370796024
H         3.16428128343472       0.18416592155141       1.23624806400587
H         3.91500072711817       0.97849587910755      -0.17171181283124
H         3.91258519568674      -1.22256843593923      -1.38847542904943
H         3.13176057694218      -1.98371260786814       0.01714105605059
H        -1.11101778334393      -0.66533708441640      -0.95357491337838
H        -1.67537763401283       2.54882873022406       1.73923019043466
H        -3.24737837010715       0.39411501530319       2.53674038778061
H        -2.27605051738436      -2.51555373197766       0.38841852572509
H        -3.11383117577075      -2.07648417394676       1.86614305085898
H         5.11536905474566      -1.45962161443711       1.44318889817679
H         5.92003775004448      -0.65877720511553       0.06887428008642
H         5.61280106100476      -2.41310436243775       0.02591891342772
H        -5.06356790663837      -1.14230360350248       0.49983039778083
H        -4.77481522944806      -2.85989708618489       0.12992442235573
H        -4.21376676792911      -1.60314123863872      -1.00191362384479
P         0.41634325498535      -1.79042284191159       2.74831292217585
F         2.00097916635341      -1.87394731704163       2.31314662554534
F         0.39336720641037      -0.16513890702190       2.35271545212493
F        -0.01761155867088      -2.13511426338646       1.15205547104756
F        -1.20503474596750      -1.67584341374049       3.14191650904233
F         0.38423537976564      -3.39314551618360       3.08455063985155
F         0.82329930836726      -1.41775976438603       4.28957152976288
