44
C12H24F3NO3S optimized with ADF in AMS.
N        -1.07756513342604      -0.31037871051423      -0.10712460090624
C        -1.33107182337180      -1.19710338809882      -1.30562835871005
C        -2.37254454893412      -0.46265636474553       0.67806988668313
C         0.07777960077719      -0.83533083268784       0.73461947405482
C        -2.03477440552936      -2.43196275182735      -0.74188140469926
C        -2.71868414873919      -1.94518526640324       0.56430277942679
C        -0.85011982000200       1.11912110033830      -0.53150300211226
C         1.43653787805203      -0.73612233047752       0.06696079642949
C        -0.55326390670911       2.07128786877679       0.61524688729699
C         2.51422317187085      -1.36989632940815       0.95260133695331
C        -0.51586485390835       3.51187439518243       0.10969340075599
C         3.89880100133980      -1.27273092008009       0.31855790438729
H        -1.99529745250743      -0.62345147905910      -1.97037048002098
H        -0.38713230955861      -1.39224037366708      -1.82891909069269
H        -2.20470189860594      -0.10828741708993       1.70494209379658
H        -3.10815617827673       0.17520183806379       0.16373029786259
H        -0.17087860820693      -1.87387465809181       0.98984469844142
H         0.03185491186669      -0.27788701961223       1.68136219231807
H        -2.75304508991433      -2.82160999576873      -1.47778990277788
H        -1.31394637853056      -3.23643307555019      -0.53493128302860
H        -2.33963706578476      -2.47534432082798       1.44951915703904
H        -3.80912024104126      -2.07569491386526       0.53919831540778
H        -0.02951193713797       1.10815989752491      -1.26636806260231
H        -1.76985962601483       1.42070410841654      -1.05886096398298
H         1.44473088953092      -1.24657414380666      -0.91270373788044
H         1.70833417231378       0.31777512623280      -0.11615366195854
H        -1.30433993050955       1.96164492815046       1.41242845779985
H         0.41338050290798       1.81927063483417       1.07836808002233
H         2.51120499553464      -0.87413508988968       1.93862624842076
H         2.25741167942244      -2.42728628217446       1.13894267886214
H         0.24716817629956       3.64694826850023      -0.67373773928881
H        -1.48901004796003       3.81703125699120      -0.30588162526263
H        -0.27492239369843       4.19591700519187       0.93575019157746
H         4.66407311396326      -1.73264529107804       0.96095810749734
H         3.92540162511295      -1.78611175019704      -0.65639745796949
H         4.18586416662651      -0.22172367519820       0.15337098935396
S        -1.33592695784606      -0.71021383538617       4.23576234011402
O        -0.67766289354860      -0.69183590175540       5.53876265391504
O        -1.19183287119640      -1.94224867135837       3.42918862452208
O        -1.20581582909823       0.53348313400219       3.42524331940784
C        -3.17036123824268      -0.71146075877401       4.65655398649759
F        -3.51014868762885       0.35686106878173       5.42163855673593
F        -3.52375387094126      -1.83886582123926       5.32460723518448
F        -3.94214252314923      -0.65543215055505       3.51749089682908
