42
C12H21F3N2O3S optimized with ForceField in AMS.
N        -1.12287962114462      -1.72632811813259       0.22338716506987
N         1.10049405610849      -1.71285975483605       0.30818202271034
C        -2.51825935274775      -1.45146405256742       0.56360927412159
C         2.46155436402592      -1.40351435305136       0.74563174103401
C        -3.01547984027697      -0.17235381340787      -0.12402024146038
C         3.04467961617960      -0.22283576559514      -0.04465291759526
C        -0.03963751905915      -1.43094927484671       0.96876087569707
C        -0.65311953906439      -2.22069127305655      -0.93984011435566
C         0.72574391118269      -2.21779631641530      -0.88459590253264
C        -2.22723648337151       1.06518254175947       0.32870507726735
C         2.19749641405342       1.04810631999678       0.11349967732005
C        -2.79105109897530       2.34083733840913      -0.28748287019516
C         2.83100329675699       2.23324485759957      -0.60734997169265
H        -3.14996970032965      -2.30957049335312       0.24702727899719
H        -2.62745733900811      -1.34613275175522       1.66534866470858
H         2.46595726885692      -1.15532594288668       1.82989895761083
H         3.10561848672470      -2.29796662591331       0.60338712722874
H        -4.08934708301773      -0.03422944358652       0.13025505164601
H        -2.93492094592299      -0.28755696890905      -1.22704970214453
H         3.11497497821989      -0.49432247764560      -1.12027372147287
H         4.07375375626649      -0.02601812704388       0.32831559699296
H        -0.08000884616509      -0.95925797163986       1.94275541082222
H        -1.26470778241750      -2.53340826511837      -1.77616300497491
H         1.40272090277830      -2.53410527795948      -1.66550825337730
H        -2.26274655167354       1.15167543289544       1.43656133620674
H        -1.16730876338425       0.96896171223352       0.01652197942119
H         1.18901850579618       0.88013528624175      -0.31794345306027
H         2.08557957766497       1.29645935206827       1.19148487632640
H        -3.84315440962091       2.49240549138634       0.03397429137404
H        -2.74715603517431       2.28471304213707      -1.39607576665237
H        -2.18748567208052       3.21104212193810       0.04752134863971
H         2.93356452910897       2.01397739050149      -1.69159281225612
H         3.83093236651997       2.45662402025632      -0.17904317213305
H         2.18401347147574       3.12809782680445      -0.48672549578907
S         3.79852371245539      -4.20093616104486      -4.03822730510727
O         3.27083324868459      -4.84031557412539      -2.74558586431236
O         2.93618889066505      -4.85436183703055      -5.12793980069668
O         5.16532618867102      -4.87509642220673      -4.22689636495319
C         3.82468887528593      -2.38600356099013      -4.05416020489644
F         4.62254889273710      -1.92847085513347      -3.02308018297851
F         2.54075955717795      -1.90288753398143      -3.89349248393466
F         4.33212129873806      -1.94345875049505      -5.26046022222353
