48
C14H28F3NO2 optimized with DFTB in AMS.
N         0.19826048227284       0.40504935435429      -0.05518396609144
C        -0.48097823524518       1.43895663792249       0.81735409491915
C        -0.80876601565266      -0.46471374221836      -0.75248824922879
C         1.05830773807546      -0.45813510579676       0.83022134612581
C         1.02536362732218       1.12086162722490      -1.09843250427225
C        -1.53982056662681       0.90457388219415       1.77923906206175
C        -1.81789121976089       0.28341577416712      -1.62360444641384
C         1.86348770254460      -1.53973892449021       0.11268337594294
C         2.28970355047808       1.80032867705533      -0.57319463598900
C        -1.97397018202357       2.04363810130544       2.70330593771459
C        -2.77614651944764      -0.72258868094695      -2.26119591019262
C         2.82843276479312      -2.18037216674491       1.11160608578824
C         2.81561958868661       2.80203266633260      -1.59977300942887
H        -0.92664689371447       2.18063318726195       0.15114749207715
H         0.30687931938151       1.92656415298176       1.38840624908086
H        -1.33169344885645      -1.03435591346788       0.01925680362882
H        -0.24998682891429      -1.16615354094141      -1.37621140198142
H         0.39331394558597      -0.92881329637447       1.55681125310905
H         1.72890704204565       0.21266940273159       1.36855791598832
H         0.37154472301141       1.87293684549564      -1.54566754998682
H         1.27999001515960       0.38895237371245      -1.86953246904928
H        -2.40750943541900       0.52525078663323       1.23071636639298
H        -1.13825811922035       0.08987243080131       2.38676430327964
H        -2.39180183022765       0.99529392407459      -1.02689233878024
H        -1.30427665146411       0.83692198077083      -2.41338592466624
H         1.20059778431918      -2.31074669856417      -0.29032994449648
H         2.43620470071318      -1.11772797306813      -0.71623677019405
H         2.07538083659547       2.33881215434843       0.34599366135651
H         3.06318159974737       1.05859263197986      -0.36132852066492
H        -2.76641772867721       1.69395365470703       3.36365188050934
H        -1.13158149868755       2.37778534160746       3.31072439570959
H        -2.34637790220082       2.88734634384135       2.12176284604773
H        -3.49972405276906      -0.19490793961328      -2.88115247140954
H        -2.23019143089233      -1.42907037431034      -2.88718017076521
H        -3.31468766645243      -1.27875848754631      -1.49355798795354
H         3.39744783093229      -2.96789959599615       0.61911061929232
H         3.52395511196818      -1.43632685827637       1.49956701114914
H         2.28031440091565      -2.61531196306916       1.94749957048601
H         3.65428928643614       3.34398689444256      -1.16402705342105
H         3.15594190428348       2.29899900927126      -2.50531274073864
H         2.04059714735683       3.52230966720544      -1.86365255584811
C         1.52602104049089       3.63777829959479       4.24035040431327
O         0.55655001028235       2.93333987191954       4.45065885462907
O         2.13274912003749       4.51849591807230       4.79253604660759
C         2.16675283156242       3.24916219307708       2.70559920453634
F         3.39900243018694       3.65172150679453       2.36729814167347
F         1.34469240939722       3.72281481298506       1.71398354916569
F         2.16989838097034       1.88474192195859       2.50776895208696
