40
C10H22F6NP optimized with ForceField in AMS.
N        -0.88720239965155      -0.16405475721381       0.04860603778116
C        -2.02740622090199      -0.28936722995568      -0.91017117573883
C        -1.22145280664893       1.02310780517682       0.89495315254245
C         0.38009370557402       0.08273944112421      -0.71532374144358
C        -2.85250345359663       0.97951379145149      -0.83335969807219
C        -2.64022571166571       1.45546742404577       0.57539321875796
C        -0.80370762568733      -1.38657841839607       0.91186530283323
C         1.64762751927054       0.19924722589002       0.16502969950149
C        -0.43910064517506      -2.67711363575211       0.15491949157302
C         2.86106542447488       0.62127008896145      -0.67011318309813
C         4.11504882791387       0.72312720344012       0.19457356781929
H        -2.70835135435855      -1.13140319831741      -0.64528079831081
H        -1.70278651164137      -0.46665442506309      -1.96079338487489
H        -1.12984864470087       0.82445623380546       1.98686804855393
H        -0.56367310707160       1.89587205844208       0.67761420034647
H         0.55006262398237      -0.72576932626778      -1.46075420224014
H         0.27692519868623       1.01921205454357      -1.31220121968004
H        -2.45718573125155       1.73143490951453      -1.55178503183369
H        -3.92810847195618       0.78844593706644      -1.04237541858594
H        -3.35411541108228       0.94547390218224       1.25968363157168
H        -2.76668066267971       2.55758867232760       0.65612300598564
H        -0.06490601899266      -1.24466857415386       1.73045734558344
H        -1.77906976782123      -1.55601932817345       1.42386449901069
H         1.49456692122150       0.94637261620585       0.97011234403166
H         1.87604431979498      -0.77970001827479       0.63544495403452
H        -0.55859546529027      -3.54520645999351       0.83649886833143
H         0.61818180987964      -2.65977202645906      -0.17859239605478
H        -1.09624326848798      -2.83654304084655      -0.72372266268995
H         3.03932767854792      -0.12410060738786      -1.47588161279901
H         2.66886190304313       1.61040196439829      -1.13986328616746
H         4.34741513596008      -0.26103899114499       0.65475354290935
H         3.96948901065396       1.47754696984330       0.99712614959289
H         4.97583165769757       1.03387925402096      -0.43368774997849
P         0.72526074379239       1.29218585688660       5.13184393166768
F         2.32472246687434       0.87559619186452       5.59853574780995
F         1.17930061197191       2.91060233877423       4.77897355654162
F         1.16442957760607       0.81445733361257       3.54352572004935
F        -0.86435036547633       1.75201001647059       4.67182066894519
F         0.11652967911190      -0.29150382294988       5.39799519287038
F         0.45514317228049       1.67748908520121       6.78355867852345
