61
C17H29F6N3O4S2 optimized with ADF in AMS.
N         0.49072414417021       1.55198617820790      -1.63930149660846
N         1.11918607177860      -0.52810142794000      -1.58101547550985
C        -1.31321216146826       2.86933010782629      -0.57529750364932
C         0.09176041223453       2.88969562104742      -1.17177948627005
C         0.64362970740461      -2.30078184160500       0.08110193353685
C         1.55564483072039      -1.83153182881540      -1.05011740483535
C        -1.43379583850241       1.96972294468678       0.65006214766008
C        -0.81758997663307      -2.42005808520768      -0.34096660067976
C        -2.83768260153498       1.95810470037518       1.24929268244632
C        -1.75514136770645      -2.76632462029802       0.81528778343413
C         1.05811989331360       0.60893058759769      -0.87235771700577
C         0.16897879960956       1.00223537764734      -2.86003520026594
C         0.56718711751345      -0.30358401884404      -2.82322140338866
C        -2.93806267045334       1.04077676428011       2.46715529235739
C        -3.22220977753021      -2.71556054574129       0.39308513748673
C        -4.35503295073457       0.94186587947590       3.02708282842630
C        -4.18802594232117      -3.00665328966632       1.53660461403117
H        -1.56182013714233       3.91301699331425      -0.31159794286579
H        -2.02526021118428       2.54956992603541      -1.35395419783191
H         0.73519612892498      -1.60493901456427       0.93616240525158
H         1.03514707943625      -3.27121309644234       0.43545728395127
H         0.15713721847874       3.56223181062216      -2.03897385052853
H         0.84306151866110       3.20746967967053      -0.43130064076269
H         2.60451024045852      -1.73482643625175      -0.72990001879158
H         1.51866597542409      -2.52963212626550      -1.89898054332364
H        -0.70102334989908       2.28430444727782       1.42119771993100
H        -1.19237005846411       0.93071718846006       0.36373828262702
H        -0.91255511928845      -3.18215507211341      -1.13695637281357
H        -1.16211052172453      -1.47506021978109      -0.79167300044635
H        -3.13501001698076       2.98541935246518       1.53278414604396
H        -3.54488805443115       1.62082835579203       0.47341020851872
H        -1.59048124699401      -2.04673469931775       1.64121421850399
H        -1.50686423768512      -3.76561044426319       1.22189450279846
H         1.38708590333819       0.74065549636673       0.14953717507764
H        -0.39357440670946       1.55049169105373      -3.60789018945646
H         0.46391207029813      -1.09125772420023      -3.55773579487309
H        -2.58671355994942       0.03263083667538       2.18203563669503
H        -2.24895038321404       1.40352577082952       3.25404503974322
H        -3.39499197918694      -3.42632157581140      -0.43396689419210
H        -3.43394256788429      -1.72399619072738      -0.03425848165858
H        -4.74406680425351       1.93804191205834       3.29479105377989
H        -5.03768955786824       0.50341730954188       2.28390778252052
H        -4.38522523569494       0.31341856734867       3.92989962821808
H        -5.23061422333879      -2.93882017336297       1.19147645406454
H        -4.05973965340888      -2.28364901100790       2.35937834452007
H        -4.03027731556464      -4.01693534359029       1.95014531190713
N        -4.81938658875362       0.30479015635948      -3.25912695580205
S        -3.24335028477351       0.35273140237670      -3.09495896454247
S        -5.70798990863416      -0.94280126464644      -2.70936021307787
C        -2.56651682658734      -0.95459163686488      -4.34373002054007
C        -6.30805015675992      -0.27137785234382      -1.04851252673497
O        -2.76391013959498       1.62242794492508      -3.65266959527098
O        -2.66535214658303      -0.06234671363208      -1.80977854204743
O        -4.94089025829691      -2.14117749768752      -2.38327595706089
O        -6.92202060985449      -1.02214775728588      -3.50191762169219
F        -1.52810329396102      -0.41473946754027      -5.05874182553797
F        -3.50487255860528      -1.35154041274387      -5.21898622476647
F        -2.07917192522616      -2.04611832148249      -3.70026506110279
F        -7.08116857326924      -1.20097190059152      -0.43541009978079
F        -7.03534851287542       0.85514493480022      -1.21535564650341
F        -5.26630498553839       0.01565543351819      -0.22647842661328
