31
C9H20ClN optimized with DFTB in AMS.
C         2.72198310908771       0.15958020205398       1.66386904497357
C         1.78997519745219       1.22266365265313       1.07960581756460
H         1.25780897352093      -0.97377711645621      -0.41678853736080
H        -0.03061596471300      -1.53253504784870       0.71226322560171
H         2.57385803973007      -1.98822516480141       1.29128979628699
H         1.52492956539463      -1.40799300324461       2.59520992494996
H         3.02676310663505       0.40745306467142       2.68183751856194
H         3.61298972296378       0.08974066643814       1.03583653672838
H         1.61450742707326       2.06844871230004       1.74538029293219
H         2.18334663294060       1.57463150800991       0.12389347112718
H        -1.31482131325546       0.09461661809986       1.83531471684432
C        -0.41286928364852       0.68468033344134       1.98173931066527
H         0.10979043955152       0.33778026545405       2.87014150695210
H        -0.67474684494534       1.73497055531901       2.09672760100087
C        -0.16089403293453       1.14607003607747      -0.41503978442406
H        -0.40031092818144       2.17835998071275      -0.14844599573392
H         0.61200638494261       1.14582165610514      -1.19198097642895
H        -1.80951454435860      -0.26121795346556      -0.14971288122117
H        -2.13370152495217      -1.69014704029810      -3.58551674579108
C        -1.11290065685895      -0.40126426029345      -2.19214158018513
H        -0.76225468520117       0.27965851317215      -2.97283468191387
H        -0.31581136726184      -1.12429125247705      -2.00163729035801
C        -2.36125866754758      -1.13507605959500      -2.67600760487274
H        -3.16349970512955      -0.42802417494759      -2.89181630555028
N         0.47743394810331       0.53798345094692       0.80169592480553
C         0.84760093627526      -0.89887468285283       0.59495168341809
C         1.94375232220846      -1.15976127073743       1.61600722017904
H        -2.71186595902800      -1.83779134375326      -1.91843673104080
C        -1.40437485542371       0.40341176496203      -0.91776878421278
H        -2.17710246234737       1.14691308797417      -1.13740390902110
Cl        2.61076536140785       0.23632254957972      -1.80266131667705
