26
C8H12BF4N optimized with ForceField in AMS.
N        -0.48692557764286       0.00415470297275      -0.41046411615317
C         0.94260161082018       0.00956092922279      -0.74391326841216
C         1.78198319734473      -0.00038781742022       0.53689811953937
C         3.27521784139113      -0.00228609705125       0.22400200257808
C        -1.14702183323297       1.18972419269801      -0.23474778692574
C        -1.14157293768231      -1.18591857903854      -0.24297841316644
C        -2.49745779975222       1.20327828341560       0.12230043489604
C        -2.49211377081051      -1.20765625247601       0.11448326323642
C        -3.17091899123881      -0.00418545597129       0.29952269641953
H         1.19474555007024      -0.87779719956227      -1.36330501090431
H         1.19326826545489       0.90699318132186      -1.35307999347720
H         1.53679157460570      -0.90516098477671       1.13422252189820
H         1.54044272571749       0.89809745234102       1.14501811188477
H         3.54686422979715      -0.90744361631504      -0.36020265169938
H         3.85279598194328      -0.00580021195338       1.17271009905502
H         3.55016517855352       0.90512500269937      -0.35513112157900
H        -0.62756145477553       2.13274040103888      -0.35866942716384
H        -0.61791699174155      -2.12593845413096      -0.37382477482139
H        -3.01413921407393       2.14297950607896       0.26807671017886
H        -3.00508994216400      -2.15027246626718       0.25456808953613
H        -4.21478823705187      -0.00710513966606       0.58569128273181
B         2.05036796043675      -4.03176194701968      -2.14702924680795
F         2.46268860609730      -3.62308874146943      -0.85072877958887
F         0.97902427799837      -4.95678721848556      -2.03337422450666
F         3.13927066874703      -4.64817649096459      -2.81846556944526
F         1.62025708798881      -2.90037615412105      -2.88847596120286
