30
C8H15BF4N2 optimized with ForceField in AMS.
N        -0.67846133714451      -0.90936244929625       0.39815598049966
N         1.51737013936094      -0.57904455362910       0.28036503229911
C        -2.07501380121480      -0.78472239675906       0.81265291560425
C        -2.89854802677283      -0.03223675935821      -0.24047336099107
C         0.38481313199541      -0.29494157795025       0.95256692211239
C        -0.20166143108539      -1.61071297369883      -0.65096923936036
C         2.84632115070122      -0.02914503690476       0.53262878584847
C         1.16018354326909      -1.40131941896698      -0.72700676761680
C        -2.40076153029881       1.39826335294457      -0.44398620681824
C         3.12738490176191       1.12740241956865      -0.41897411799397
H        -2.14028379358359      -0.24750722699850       1.78463840718054
H        -2.50420423602726      -1.79906211074237       0.96089062280610
H        -2.86206378298774      -0.57611664365131      -1.20881711453570
H        -3.95832089184940       0.00217639189238       0.09210105113902
H         0.32903648626618       0.37322423374585       1.80224431016277
H        -0.80106145955296      -2.21096675351739      -1.32302056640984
H         2.91220848781903       0.33931476769940       1.57785723327881
H         3.61286333697319      -0.82273773598350       0.40101756801990
H         1.83476196934013      -1.80290499118199      -1.47194105664513
H        -1.37481195387454       1.39642320251377      -0.86871674001356
H        -2.39777182896077       1.94949896837974       0.52005237453024
H        -3.07090260543798       1.92712110538207      -1.15340988784503
H         3.10605279243024       0.77322960467088      -1.47105629408214
H         4.12884659118697       1.55501020010438      -0.20334034240652
H         2.36299747964778       1.92256694676202      -0.28701833728306
B         1.76534044243441       2.20417815351040       3.99281013723661
F         1.74468287307536       2.60708053479584       2.63093651885474
F         0.43338567771653       2.07311454556443       4.46764556164756
F         2.44963876827440       3.18099310352702       4.76349964365881
F         2.43332454133780       0.95641093947709       4.11100002652244
