41
C13H21F3N2O2 optimized with DFTB in AMS.
N        -1.05846753588971      -1.05961192109353      -0.72727375060393
N         1.09438838823896      -1.02578538003666      -0.66120395049194
C        -2.45757466139236      -0.95670680975962      -0.32271893034211
C         2.46418640667630      -0.89772715340385      -0.17574424029921
C        -2.93398185541880       0.49788524120205      -0.39230914766724
C         2.91958996982864       0.56559259847160      -0.21473844040882
C        -0.00730732251485      -0.97382476129196       0.08880552592843
C        -0.62234154627219      -1.13263567021944      -2.01985252490943
C         0.73591715756302      -1.11162185755573      -1.97942738936346
C        -2.30117747491242       1.37452676268304       0.68987870385746
C         2.26806293706956       1.40903435990525       0.88461761081605
C        -2.70226299556064       2.83739941469303       0.50886577368707
C         2.60553274470735       2.88821066623624       0.71048715446155
H        -3.04110089858806      -1.57775636416014      -1.00679085096495
H        -2.54701946315821      -1.35780243638597       0.69147267000604
H         2.50388049861944      -1.29629759051134       0.84236162162091
H         3.09806015339947      -1.50960338451288      -0.82278868548805
H        -4.02188892027085       0.49332135218556      -0.27922007302487
H        -2.69310939910645       0.89788546038608      -1.38128150142888
H         2.68082511595337       0.98439080732686      -1.19486129968705
H         4.00667392983027       0.57783921422064      -0.09487345622327
H        -0.04014364970909      -0.92482385568295       1.16275772453043
H        -1.30115999558011      -1.17500442895568      -2.85209856778749
H         1.46584685991335      -1.12803218109313      -2.76874209072548
H        -2.60898100231674       1.02151950987782       1.68128990074390
H        -1.21127768224634       1.29633683983991       0.62920485193971
H         1.18182272433393       1.28519348833899       0.84048119671347
H         2.60736889955427       1.05819246455963       1.86591202477793
H        -3.78461896609008       2.95074275373057       0.57812631321213
H        -2.37318697406674       3.19873036670565      -0.46538193653315
H        -2.23639030079814       3.44882948209369       1.28196539683554
H         2.22482270634811       3.24978311851195      -0.24450928452401
H         3.68515511878202       3.04170089079624       0.73937689731215
H         2.14854113042572       3.46884867744012       1.51163704753398
C        -0.99405342635190       2.10287058968618      -3.41466623413536
O        -1.59388715548706       1.05759566676585      -3.17238977895163
O        -1.16595169887109       3.04983529918539      -4.14073626751968
C         0.39292469341108       2.19772874197854      -2.48575736319547
F         1.38505009384587       1.39176588257975      -2.96479075474753
F         0.15954216417032       1.73590389669345      -1.21985261920020
F         0.93972895863074       3.41032156496884      -2.33401969775351
