42
C10H22F2N2O4S2 optimized with ForceField in AMS.
N        -0.56188149451971       0.30496261679175       0.14989718089717
C        -1.55519995497131       1.24076964758199      -0.46732086515848
C        -0.89760433283184      -1.10934024174888      -0.19950400138112
C         0.77745569666485       0.66762670878958      -0.42364694196895
C        -3.02585941527975       0.89726543971800      -0.16395975997914
C        -2.35149246196247      -1.49631472522189       0.12461841859991
C        -3.33722836089876      -0.54558193433227      -0.54309717425510
C        -0.53684757074936       0.49549799635714       1.62611879739745
C         1.98152979685947      -0.15646562466880       0.09738304242197
C         3.28588704666106       0.32039646044605      -0.55641995436102
C         4.48530019247181      -0.47601060703674      -0.04922301310859
H        -1.44668390303274       1.24048485959905      -1.57716650739530
H        -1.36648445210463       2.28617372880132      -0.13188582466931
H        -0.24422817613979      -1.81911358063323       0.35264672355909
H        -0.72948327728099      -1.28820907331305      -1.28627352960059
H         0.99318128362718       1.74319139872235      -0.22349797842224
H         0.75634622157871       0.55766215727952      -1.53289605872162
H        -3.68158687797157       1.57093350042868      -0.75694196484516
H        -3.26964041543607       1.07642808141490       0.90348102975355
H        -2.51560494661628      -1.49987422311707       1.22033291421071
H        -2.54331345281764      -2.52844877780020      -0.24003646943388
H        -4.37054568964598      -0.79768444074610      -0.21999283351360
H        -3.28131127300352      -0.66345355549314      -1.64762702698037
H        -1.54144859294570       0.40264409112210       2.08139829877632
H         0.08954859771522      -0.27235585396177       2.12694076434378
H        -0.14425869942094       1.50194653995661       1.89301583443797
H         1.84761360659610      -1.23137490304551      -0.14230650828760
H         2.08753863630089      -0.03915560279752       1.19515811347573
H         3.44964693330880       1.39608321359754      -0.32734116299837
H         3.21915879288295       0.20288070655889      -1.66005051002148
H         4.36474272618689      -1.55298803998841      -0.29294152772318
H         4.59109433646724      -0.35743312125682       1.05022916305068
H         5.41108569284269      -0.10339340348439      -0.53621396754342
N        -4.23431602060125      -1.94463773115359       5.56127345078226
S        -5.68294911069347      -2.25260351314997       6.25569595308221
S        -3.95550257816029      -2.27657173409697       3.98382169519275
F        -5.85483562783643      -3.90438936455998       6.46423873283970
F        -4.69017339093881      -1.10821133915085       3.03635084325877
O        -5.75346269923171      -1.57169529431904       7.59303268590005
O        -6.79281625507879      -1.75460088576413       5.37277260818493
O        -4.52664196851574      -3.62112677070261       3.62921430482071
O        -2.47535127017830      -2.27007924732251       3.72750094268281
