34
C10H18F3NO2 optimized with ADF in AMS.
N         0.50207224875094       0.40054579747918       0.11407126182989
C        -0.32753101963741       1.53763801554748      -0.48172425079407
C        -0.07065429966629      -0.92587735101438      -0.32815033592496
C        -1.79997419705880       1.42169437500074      -0.14383371870364
C        -1.54768878919610      -1.07181956594859       0.01457813207538
C         1.91055127443004       0.58485924564728      -0.43360093294066
C        -2.37723777582549       0.07272059873199      -0.56805748101680
C         0.53067605711451       0.50278690902267       1.61254477395257
C         2.95021258498852      -0.39008110611664       0.08022989961835
H        -0.16274880769895       1.47518677657112      -1.56996696996650
H         0.10012597344046       2.46609766895019      -0.05711768944609
H         0.52802697311678      -1.71637498014979       0.14464123183090
H         0.07672352102325      -0.97314234956470      -1.42015998762475
H        -2.30851976758154       2.25030574862578      -0.66386636558194
H        -1.94823647511650       1.61209684095331       0.93171804491704
H        -1.68019267047883      -1.12579274463175       1.10797627035250
H        -1.88224957091638      -2.04406641194116      -0.38436072260639
H         1.80760435679765       0.50989053127451      -1.52744492910383
H         2.18569247804865       1.61835845821026      -0.18037537619607
H        -3.42828455597610      -0.02080582310565      -0.25180142557638
H        -2.36454133489259       0.00222940192625      -1.67171250298374
H        -0.48650837458204       0.38452781298239       1.99552987947542
H         1.16866644762425      -0.29824643387536       2.00175024349879
H         0.88390208461213       1.52058793337198       1.86423283963066
H         3.88382142479970      -0.18904708577110      -0.46718099710091
H         3.16797417682985      -0.24132477140186       1.14595787982602
H         2.68784431865995      -1.44236388823972      -0.10095009082852
C         1.23368395353369       4.37696074938220       1.82231819571243
O         0.46048061468617       3.38981384062726       1.61309645531367
O         1.08781377667786       5.41508994729557       2.47168199981846
C         2.62032492925659       4.19159958623974       1.10522160592037
F         2.46888950111439       4.00548157304788      -0.26374789553577
F         3.27558622182997       3.05005012090755       1.55566845191677
F         3.48531337159166       5.21886728306537       1.25925015534179
