57
C15H28F6N2O4S2 optimized with ADF in AMS.
N        -1.70686136561560       0.27663584164238      -0.53603932646491
C        -2.69582606760140       0.70987738990522      -1.60761393304069
C        -1.90109525374458      -1.21063533637896      -0.27365909457810
C        -0.32256681874614       0.52379555516926      -1.11904522961305
C        -1.89439343782890       1.03063335071731       0.76377510098139
C        -4.13816249612719       0.39755801437765      -1.25979109465791
C        -3.34029115304218      -1.57549566673894       0.05757785003919
C        -4.30623703344482      -1.10348833624755      -1.02725193975431
C         0.85225447229313       0.02768969626462      -0.30423536616784
C        -1.67029580193246       2.52718517168152       0.68830821980602
C         2.13624556666695       0.30858311552740      -1.09305201208372
C         3.37638893098816      -0.25825864417147      -0.40914291262202
C         4.65382953945387       0.00016881393505      -1.20481985205545
C         5.89594930887178      -0.57231668222356      -0.52812453214627
H        -2.40754681391086       0.14222995482268      -2.50339266656179
H        -2.51599238292199       1.77471902598390      -1.80390818357866
H        -1.21956307775964      -1.47838218657873       0.54458452509065
H        -1.56327801932963      -1.72561879477138      -1.18400270159993
H        -0.25888649908937       1.60530902197226      -1.30399017137051
H        -0.31391577559736       0.03172912762467      -2.09993047423732
H        -2.91286230354113       0.81332548914413       1.10588099568898
H        -1.19793832701591       0.56776861545275       1.47770774864420
H        -4.74891991084817       0.72961408921376      -2.11582727226747
H        -4.48247867218029       0.97852913392099      -0.38634188289553
H        -3.63707144508799      -1.17578845863328       1.04307836969074
H        -3.36869736795991      -2.67382221060570       0.15018906141564
H        -5.34472862288647      -1.34165083902090      -0.74937227004936
H        -4.07755283655826      -1.63516941251484      -1.96783925678767
H         0.90697813747882       0.51235897226694       0.68729133491465
H         0.77623570827959      -1.06119579709197      -0.15572119894388
H        -0.62984423714297       2.78664363477015       0.44979238586330
H        -2.33595781034198       3.01805957136037      -0.03533265655808
H        -1.89645249841947       2.94932084965246       1.67915698761327
H         2.25570597969045       1.39900583442306      -1.23396269365637
H         2.03235327172623      -0.13235893102661      -2.10036926063282
H         3.24690172798419      -1.34839159696093      -0.27411470256499
H         3.47955366857769       0.17594356298566       0.60426545532184
H         4.54063333767887      -0.43646609777581      -2.21303732874730
H         4.77674146200659       1.08881221682362      -1.35144244433645
H         5.80353245598742      -1.66249666151163      -0.39563532181137
H         6.80125842511299      -0.38075843813514      -1.12379344041852
H         6.04520593868398      -0.12524781565549       0.46854418125228
N         0.34459684972311      -0.84141548256677      -4.19862416811152
S         0.10300493241207      -0.00621875175253      -5.56937698314408
S        -0.53868266785371      -2.11027104020710      -3.76007422725230
C        -1.13445713288903       1.34333386823893      -5.08925996395801
C        -0.21562593001410      -3.53921812557709      -4.98377756775038
O         1.30999776156255       0.76280668699841      -5.82279639331430
O        -0.57038228375643      -0.74584207267919      -6.62707302791657
O        -1.99472512708314      -1.91556490714850      -3.78623130572751
O         0.05218178326723      -2.58961199078408      -2.50483156750895
F        -1.25330258090509       2.22500853308036      -6.10588966115993
F        -0.71369255837910       2.02897158249312      -3.98318246525871
F        -2.36676822562875       0.84324544992235      -4.81594148931808
F        -0.37102170160915      -4.70379087070972      -4.30630330721156
F         1.04434637042270      -3.48118491947057      -5.46380211422691
F        -1.08681861627520      -3.52172560533252      -6.00605621816103
