28
C8H17NO2 optimized with DFTB in AMS.
N         0.26425635336716      -0.19557301551681       0.45381626109091
C         0.13752890477224       0.61493601006968      -0.80124032553410
C        -1.11001976603299      -0.75393168247682       0.75340556955155
C        -1.32466323526627       1.03190221218826      -0.85077339886442
C        -2.04324114730089      -0.20764807642958      -0.31890466606889
C         0.71786972244542       0.65904557927514       1.58298493548400
C         1.24915390662589      -1.29380214808384       0.27498112886034
H         0.38187277653504      -0.03033067576996      -1.64837326168533
H         0.83829874716699       1.44959887157381      -0.76935250753389
H        -1.39112221644539      -0.43088927893813       1.75527289676190
H        -1.04002070113712      -1.84620229178711       0.76014590000449
H        -1.62790322356249       1.28810510973344      -1.86646075751726
H        -1.50213087827343       1.89292490189835      -0.20125031541908
H        -3.02258571015447       0.03296773956723       0.09591744402861
H        -2.17524170386465      -0.93701655313596      -1.12242554941676
H         1.71672517782926       1.03547942232833       1.36745405213298
H         0.02207870758760       1.48603541871598       1.70792059750933
H         0.72708068719667       0.03044413241500       2.47766218797233
H         0.89563363761714      -1.96369848347270      -0.50493565087479
H         2.21398976497265      -0.86623005023775       0.00648066044958
H         1.30858887172421      -1.84565752279868       1.21139573222543
C        -0.26478766458080      -3.89166046167020       4.09530649981098
C        -0.12396090760080      -2.89242983728833       2.92473558216587
O        -0.04507373877419      -1.67950474314803       3.23013528082911
O        -0.11306480077549      -3.36777651844888       1.76934261606619
H         0.35785856446183      -3.57417651211122       4.92981969876275
H        -1.30598449468499      -3.89573862082934       4.41745774434930
H         0.01459404325189      -4.89275987062184       3.77317363525890
