51
C13H28F2N2O4S2 optimized with ForceField in AMS.
N        -0.71381510964037       0.52177462299425      -0.21379526438617
C        -1.69322055464399       0.25239377587359      -1.31708004567542
C        -1.26433274225105       1.60802688046719       0.66201869358149
C         0.54152659362197       1.02684292354557      -0.86974676202082
C        -0.45028099528547      -0.70662677664780       0.61553626479057
C        -3.10997518510228      -0.09240127286791      -0.82938452179232
C        -2.68300058498146       1.32671376929501       1.19583520809063
C        -3.65378533443673       1.02317132825428       0.05837485997182
C         1.73440624704484       1.30134609522675       0.07918943234728
C         0.22100060420731      -1.88839843511397      -0.12602924737632
C         2.93268971768315       1.85059308250286      -0.70467547716381
C         0.45282902084980      -3.06443971431764       0.83061966400071
C         4.12847645157976       2.09306208618988       0.21164827478474
C         1.11494965735395      -4.23875373011022       0.11434786179313
H        -1.33896112120411      -0.55474725331597      -1.99124182938723
H        -1.78959088032518       1.15224611875661      -1.96932651938176
H        -1.30306664836641       2.57395593214600       0.10701732084233
H        -0.61551952208606       1.77384519178215       1.54860088049349
H         0.32644122450827       1.97456979421923      -1.41635319356694
H         0.87929566204428       0.31800206939761      -1.65826923706833
H        -1.38838188273147      -1.09591557719333       1.05608212661067
H         0.17579628625200      -0.44573395189002       1.49681638063553
H        -3.12694954154176      -1.06279641955080      -0.29213770321772
H        -3.77632931966671      -0.20456260802001      -1.71194804963489
H        -3.04344730337642       2.22351283501087       1.74522297468403
H        -2.67445963323015       0.49020516281448       1.92524719154034
H        -3.80974280104116       1.94116747529469      -0.55058364179458
H        -4.63612415431812       0.71888993846203       0.47880364120799
H         2.05477619965339       0.36729524461113       0.58429970006373
H         1.45721706540547       2.04863515705113       0.84995980177499
H         1.20399616754176      -1.58696456528529      -0.54080390643324
H        -0.42559378057436      -2.24357858030762      -0.95354606967130
H         2.65361177960281       2.81019740651591      -1.19195119411644
H         3.22828614620215       1.12661849300995      -1.49504616058098
H        -0.51929041756750      -3.40325265427157       1.25092123456772
H         1.10614611295281      -2.74170472598161       1.67049935408950
H         4.44465959283732       1.14184139910787       0.69046169265386
H         3.86937729433824       2.83115625753915       1.00035919037891
H         4.97760727155783       2.49224073947511      -0.38241771795342
H         2.10717365403252      -3.93774082739095      -0.28426100282260
H         0.47485439199028      -4.59043152766508      -0.72262433618020
H         1.25833911921814      -5.07745281955285       0.82763822810875
N         9.26172954505569      -0.22927010307312       0.48195818620287
S         8.09135441318696       0.68627564878029      -0.20335776866487
S        10.62668117133026      -0.61949991294915      -0.33063792656478
F         7.14131977752709      -0.27794654820139      -1.18887246569337
F        11.55460919907848       0.75673503446563      -0.55051301764237
O         7.23607912431520       1.28853804181633       0.87438239431871
O         8.70558264471730       1.77746084767551      -1.03490676402382
O        10.27403080449120      -1.18766436048751      -1.67658156946257
O        11.40999372129053      -1.63007277378726       0.45843894524247
