31
C9H19NO2 optimized with ForceField in AMS.
N         0.15690413454980       0.28218817908146      -0.07136621468535
C        -0.44442700786486      -1.02819384505757      -0.43976356169519
C        -0.93691417945843       1.05505051850767       0.59174316743912
C        -1.95045748959325      -0.86929095515630      -0.40763270254187
C        -2.17600026593582       0.17466272086324       0.65327437902405
C         1.29689028420996       0.11314004462955       0.88112683035636
C         0.59953182050275       1.00537531872294      -1.29200675635696
C         2.47948654082383      -0.70171262486817       0.32837875838649
H        -0.18240423905025      -1.82097185009088       0.29860210345402
H        -0.11595054580260      -1.39251385629139      -1.44003840394217
H        -1.20050485705652       1.98491843354341       0.03497949371265
H        -0.67563534154549       1.38794745916000       1.62281570911212
H        -2.46160841439469      -1.82467797077457      -0.15744400809737
H        -2.31334929031505      -0.49552464047097      -1.39044542078519
H        -3.10672328317202       0.75278602635219       0.46447842421084
H        -2.23975667843452      -0.31435672671714       1.65092645317116
H         1.68598591150891       1.10937592325409       1.19218564856902
H         0.94254014901972      -0.39195913643601       1.80928536826819
H         1.33252448323831       0.41126496723408      -1.87818141133152
H        -0.26119237372483       1.20791957631980      -1.96849428739321
H         1.06850256866389       1.97923112584498      -1.02677920676885
H         3.19838732415383      -0.89951770808506       1.15126260288716
H         2.15042424344754      -1.67885754009251      -0.07920943818940
H         3.02145699823077      -0.13475555186122      -0.45564872129005
C         2.75066989923936      -5.48220103556906      -1.92192444780411
C         3.20042507621696      -4.73797868386085      -0.70426159237029
O         2.72159759385436      -5.00643246096415       0.38539651115689
O         4.04703764438716      -3.86368397995263      -0.79480401913647
H         3.00938200361152      -6.55688904225020      -1.81849366351662
H         1.65110676090124      -5.38088731335109      -2.03709415418333
H         3.24475100038841      -5.08004962336363      -2.83211667036011
