33
C9H15F3N2O3S optimized with ForceField in AMS.
H         0.48679806947388      -0.45628020581811      -4.90808247881104
H        -1.17035447488596      -0.69311976073689      -4.22578741660208
H         0.02550212725680      -2.04604772130514      -4.17430807990144
C        -0.09560564034031      -0.94491901511594      -4.09910337928472
H         2.51083346003242      -0.07730574093261      -0.36852228861174
H         2.43685579089094      -1.16898010475100      -2.80582877695338
H        -1.35114041914088       0.46333327987034      -1.95832063551531
N         0.38737897409843      -0.48721846680386      -2.80263028938644
C        -0.31140313497978       0.17602374946551      -1.86095435626248
N         0.44732271465593       0.42110688188545      -0.77467509887578
C         1.66207507530688      -0.10164075023648      -1.03958134325429
C         1.62471360181317      -0.66378077520911      -2.29936324843535
C         0.03441672054455       1.10619210266550       0.44733553349533
H         0.82612311032448       1.82504185991307       0.75285574471024
H        -0.89757868050389       1.68290693612323       0.25661525968723
C        -0.21690670068209       0.08924243508164       1.56368754817771
H         0.71696743079712      -0.48308277358379       1.75704333519313
H        -1.00530037139887      -0.62312259896445       1.23351771274576
C        -0.66572892263234       0.78709519813878       2.85216311928890
H         0.12247539513818       1.49537117660595       3.18878870244487
H        -1.59888304619361       1.36138878966102       2.66234721556675
C        -0.92881025260539      -0.22432286696343       3.96335144191850
H        -0.01134276430314      -0.81410628221561       4.17521128858638
H        -1.74973156909663      -0.91048854075551       3.66854039074441
H        -1.23148064320914       0.30871017238541       4.88887831062405
S        -4.39878911452401      -3.85405951649082       2.08798317814412
O        -4.05537616060562      -4.14249826548149       0.61931792086511
O        -5.67653334080587      -4.67542596693780       2.31400371303818
O        -4.91636948901385      -2.40880230222081       2.04710505352496
C        -3.05884746923922      -4.16555782993925       3.27123886749491
F        -1.96657094951643      -3.38571779103845       2.94519790297081
F        -2.70066828860210      -5.49898529960889       3.22162130524342
F        -3.48754947505363      -3.85055882438644       4.54668478592929
