30
C8H15BF4N2 optimized with ForceField in AMS.
H         0.46217655580163      -0.43993971993071      -4.90413381442553
H        -1.18789367505202      -0.69539578182230      -4.21204130521102
H         0.01811099973791      -2.04053947218248      -4.17994922209388
C        -0.11023118760094      -0.94052056979601      -4.09534071735305
H         2.51353436772965      -0.05177557497414      -0.37978254780754
H         2.43186002479476      -1.14673290132569      -2.81571800452894
H        -1.35710168163782       0.46475421712027      -1.95175821585849
N         0.37751430024171      -0.48684683070722      -2.79978607450427
C        -0.31747625163095       0.17813673278922      -1.85764678249247
N         0.44611122969950       0.43175121149085      -0.77763109597009
C         1.66124707444686      -0.08612876093848      -1.04605038814759
C         1.61880617555351      -0.65277235178753      -2.30370763508418
C         0.03265227412468       1.11020508357570       0.44620730370243
H         0.82375158326104       1.82835937867572       0.75580342220073
H        -0.90044195504067       1.68604379975259       0.25725497171916
C        -0.21806602012926       0.08510837816061       1.55507976889591
H         0.71554361369565      -0.48975641254810       1.74287736894433
H        -1.00758823113617      -0.62384536387172       1.21981481697291
C        -0.66508456007059       0.77515978851334       2.84742486534241
H         0.12162375737479       1.48572176577324       3.18280407431942
H        -1.60107671190987       1.34642334287730       2.66239979414250
C        -0.91874119088238      -0.24080797104870       3.95692302219333
H         0.00896077852569      -0.81067588586510       4.17810803457086
H        -1.72202330643887      -0.94755280081257       3.65743623458509
H        -1.23799385115836       0.29020303139775       4.87843462966151
B         3.28805181223351      -4.17312626955204      -3.39760182616393
F         4.24933233870496      -4.57125209706922      -2.43094001899996
F         3.09296351659811      -5.22350410940035      -4.33288661560219
F         3.75329078320541      -3.01670400358829      -4.07820990188437
F         2.05782358415854      -3.88293809610593      -2.74957587272308
