38
C10H20F3NO3S optimized with DFTB in AMS.
N         0.94777655315444       0.01005255161607       0.36077633396378
C         0.99287655044777       1.35446190564776      -0.31701887994639
C         0.10104023463126      -0.92449569556827      -0.44400652256963
C         2.36634016663614      -0.50660517295314       0.39382765502411
C        -0.38586157499006       1.93832069439309      -0.58259070661350
C        -1.29964384029542      -0.38080979961558      -0.70272286817661
C        -1.23443316398495       0.97293953389210      -1.40735432260745
C         0.43928920459058       0.15096220229494       1.74851147621888
C         2.58106203574612      -1.82244751370448       1.13292403317804
C         4.04830937428979      -2.22341685126904       0.96438429473929
H         1.52803160808557       1.21236532423167      -1.25933547582066
H         1.58623908865543       2.01617520529431       0.31598009677062
H         0.04578248360472      -1.87403745330708       0.09205217598221
H         0.62270250172251      -1.08048102192077      -1.39198782819651
H         2.97419260708163       0.27631391304961       0.85067285391449
H         2.67857806319351      -0.61475741700226      -0.64599005526310
H        -0.23903319764268       2.86868167389407      -1.13680530784310
H        -0.89901704347929       2.18740635052833       0.35109164496128
H        -1.85536843988747      -0.29339414323050       0.23541390058410
H        -1.82177399783380      -1.10599429035415      -1.33239510468561
H        -2.24329712749243       1.37308383608943      -1.53224525393756
H        -0.79006267908637       0.84811914875164      -2.39951574664511
H         0.32989593341257      -0.83474279761881       2.19514714843264
H         1.15523366673948       0.74122660363086       2.31741715887204
H        -0.52471806378189       0.65267023370348       1.74264804277820
H         2.35595681093992      -1.71359287681677       2.19805794427520
H         1.94013316256762      -2.61111778504210       0.72720381093327
H         4.28290107744820      -2.36964749076178      -0.08954540012150
H         4.70129540716199      -1.44057217206782       1.34922292888179
H         4.24448441446118      -3.14862735045096       1.50386423481527
S         4.36707655164208       1.32657979531965      -1.18039459173360
O         5.14059730531995       0.23217125238587      -0.62543705430793
O         3.79769140016011       2.22400006839774      -0.18063060136370
O         3.40539219772793       0.91948378297564      -2.20168514986492
C         5.58497064306139       2.37396782213950      -2.09290770535387
F         6.18274087924316       1.67528289801135      -3.04977892254165
F         6.51617332268566       2.83906880663560      -1.26923992396336
F         4.96894663946346       3.40954023560080      -2.65418835486939
