41
C11H22F3NO3S optimized with ADF in AMS.
N        -0.54961035159527       0.29775602920494      -0.62948947102389
C        -1.42883158342513      -0.79304585741693      -0.06421595948367
C        -1.37517541016221       1.55047097815723      -0.37858649592706
C         0.78557935615385       0.40278254754844       0.08877512965218
C        -2.83947734281452      -0.42503234273333      -0.51577472211610
C        -2.82583438689451       1.12465554302267      -0.62572559965015
C        -0.36494936621058       0.10801677591553      -2.10906270606374
C         1.81151333277096      -0.63511212410649      -0.31843715988887
C         3.06602745930714      -0.47774885917671       0.54382996870531
C         4.18684538040737      -1.42323500314852       0.11789076291730
C         5.42765202957021      -1.29305519796387       0.99609372031067
H        -1.33053778262670      -0.72852038371016       1.03022741936626
H        -1.07008813767439      -1.77397523389071      -0.40197631893719
H        -1.00039124411667       2.35297645154620      -1.03129061452192
H        -1.19016854012129       1.82834901079308       0.66937977800296
H         0.54388203826799       0.33280393153440       1.16211031294740
H         1.16377404656709       1.41638138515692      -0.11719644623222
H        -3.58323250504476      -0.79491778819429       0.20533418509950
H        -3.07414504825741      -0.88814112040935      -1.48588944916329
H        -3.16899674367553       1.45347874698885      -1.61724485930264
H        -3.48646468354814       1.59604395600726       0.11582601579486
H         0.01774920720152      -0.90362612262253      -2.28636368621819
H        -1.33576577813079       0.23950505318654      -2.59981819585482
H         0.34148602373422       0.86666221883801      -2.47337306033599
H         1.41824739317873      -1.66386510485891      -0.21686350380190
H         2.09947436515902      -0.46921850458337      -1.36904661220781
H         2.81741386469713      -0.65454092783948       1.60751041781537
H         3.41783027575969       0.56649278229328       0.46209808161974
H         4.45139487733956      -1.21030343213936      -0.93363552301633
H         3.81958204795376      -2.46608362179705       0.14607414603861
H         5.82647560776988      -0.26703755617940       0.96245555851950
H         6.22388313577886      -1.97659116497036       0.66431641999960
H         5.19544775218105      -1.52885576473512       2.04713479259700
S         1.41134589270818       3.29894379649940      -1.96947971875534
O         2.27505748497528       2.14383722017167      -2.29992887949958
O         1.28326298775573       3.56993194998603      -0.52207081523856
O         0.13288388664928       3.33331643144608      -2.71331393173775
C         2.36230691456068       4.78071020455399      -2.62066655321498
F         2.64474544320535       4.63573086828833      -3.94168667016888
F         3.53689327981444       4.93186157594486      -1.95365693185044
F         1.64311364103092       5.92272810069227      -2.46627554257496
