50
C14H28F3NO3S optimized with ADF in AMS.
N        -0.32877988465731      -0.26227760271509       0.48499801938740
C        -1.71428193149991       0.14073433665157       0.02902354626994
C        -0.26092545195743      -1.78751657967497       0.54521439830250
C         0.66469232426374       0.22842269984491      -0.55842628540048
C         0.00183266588945       0.31259600805321       1.85197158996650
C        -2.81307255150409      -0.41289761832304       0.92179694921067
C        -1.34888396751043      -2.39345245525322       1.41271768428603
C        -2.74367518638599      -1.93905519887166       0.98919766179326
C         2.12777300440755       0.07877293550574      -0.17785799899488
C        -0.05516959656915       1.82357432915892       1.93172722624366
C         3.03143433184467       0.32787535380358      -1.38779522925319
C         4.51234681718359       0.21499630146191      -1.02382729205389
C         5.44053979185195       0.43642119526101      -2.21625832778479
C         6.91829893435971       0.35798360178263      -1.83890788174842
H        -1.81694796389740      -0.25687857592551      -0.99401333962935
H        -1.73626537540504       1.23794054985190      -0.02801809745899
H         0.73938835841474      -2.06256425739312       0.91995704023763
H        -0.37167674790261      -2.11337231173401      -0.50234912925616
H         0.41006792580288       1.28046390730960      -0.76279614877747
H         0.43479063776706      -0.35043082708510      -1.46772966475878
H        -0.68920876109162      -0.14680262468649       2.56522397696482
H         0.99051025516844      -0.07819197836170       2.11200380716086
H        -3.77798663784960      -0.07738862816046       0.50550859769755
H        -2.74224202623899       0.02243372607877       1.93265695031539
H        -1.14169590092200      -2.17808199975203       2.47286019341970
H        -1.24525658448547      -3.48693511562952       1.31648184288920
H        -3.50489849414688      -2.32632249974624       1.68481444542920
H        -2.98131208100918      -2.35006280756319      -0.00977689181810
H         2.39013535840211       0.79593763012060       0.61613713024616
H         2.33170560150468      -0.92213195164131       0.23560809036687
H         0.61922906884541       2.31767732350303       1.21782946593861
H        -1.07054505537222       2.22555496603018       1.79982992537530
H         0.28029630122746       2.10549448005010       2.94147290910670
H         2.83386601268898       1.33058191058280      -1.81298845917889
H         2.79476905001125      -0.40352810201691      -2.18319077561481
H         4.70176331528001      -0.78081842228177      -0.58359275906008
H         4.75030756737150       0.94885464276594      -0.23166725162863
H         5.21793114443493      -0.31619566747730      -2.99487538531049
H         5.22756310549375       1.42301956670244      -2.66830111281065
H         7.16247989385171      -0.62292625904674      -1.40131928941892
H         7.56408282753783       0.50808473562544      -2.71753757300219
H         7.17616365852495       1.12767902818633      -1.09368618152800
S         2.34694977015972      -2.50986641311750       3.25711354135938
O         1.01417832470843      -2.00742189609837       3.65884177967241
O         2.53644101019409      -2.56530863661877       1.78415691620721
O         2.88488817146561      -3.63353946996073       4.01876143593991
C         3.46913675449055      -1.07721213435768       3.74047735678602
F         3.38155306358729      -0.79389150277466       5.06488129866173
F         3.12663458893375       0.07874710368728       3.06319924602787
F         4.76909845623754      -1.33143145945081       3.44811665642465
