57
C15H32F2N2O4S2 optimized with ForceField in AMS.
N        -1.09215455210917       0.81899355861705      -0.18272123327002
C        -1.57765935433504       1.85701501198459       0.78585462913148
C        -2.07409230626396       0.71855038829593      -1.31209199995022
C         0.20317315924811       1.29246188324006      -0.78292052220785
C        -0.92368420676246      -0.49465323209604       0.53342400683644
C        -3.01990766409009       1.62774147559242       1.28214556301920
C        -3.51779493085967       0.43196770074438      -0.86612593496065
C        -3.99356665841730       1.49668091167862       0.11602977534232
C         1.40156526315515       1.39417891897756       0.19392616049286
C        -0.33215450650794      -1.65102040383513      -0.31012324708333
C         2.64738868574648       1.92148442761503      -0.52970917481936
C        -0.18864401041485      -2.92073806071410       0.53935354094910
C         3.84540586346101       2.00468571344218       0.42371189652888
C         0.39523745031064      -4.07420241054268      -0.28540711761063
C         5.09503375689324       2.49266881345146      -0.30232701073451
C         0.51870717940675      -5.34292762013832       0.55225165012782
H        -1.54145838915187       2.87031671144192       0.32274163694159
H        -0.93056582920326       1.89502101036586       1.68822102222852
H        -1.76920117182347      -0.04968502225469      -2.05213888105912
H        -2.09802113956807       1.67652230410391      -1.88335279806759
H         0.06178376543764       2.29935909880659      -1.24077532433655
H         0.49975708499179       0.63695899928584      -1.63224216756005
H        -1.89094951596244      -0.85332249831583       0.93505432287355
H        -0.28855017084336      -0.35897958737452       1.43635287405707
H        -3.32739223553586       2.49425022453606       1.90677293449285
H        -3.07869086859746       0.73033999243973       1.93252454883252
H        -3.60855805022568      -0.57977435038281      -0.42022950718617
H        -4.18033787372252       0.44984515587625      -1.75833516138124
H        -4.07692772149304       2.47459722156804      -0.40758167462104
H        -4.99965263052613       1.22431179740739       0.50082236530114
H         1.16714146132217       2.08800865580810       1.02657265545639
H         1.64716002672035       0.39765855427972       0.61499171911094
H        -0.99835692759499      -1.88627062972650      -1.16466142416879
H         0.67128454942498      -1.38367762318224      -0.69907247746955
H         2.43496743095797       2.93353069213300      -0.94056121856933
H         2.89635556383427       1.24201596508580      -1.37488639672958
H         0.48062287408466      -2.71302903849261       1.40361959279911
H        -1.18752781900804      -3.21779777771973       0.92940888986257
H         4.05163099383196       1.00200388390491       0.85632811524011
H         3.61523191075660       2.70575023546156       1.25559928409499
H         1.40282413660966      -3.79258215282484      -0.66232939711236
H        -0.26200940862761      -4.28333119500520      -1.15781704787466
H         5.94680038943074       2.52659336666402       0.40907500693437
H         5.35356889261738       1.80166487211031      -1.13304125511735
H         4.93002967525732       3.51267390397645      -0.71058274413520
H         0.94737179049911      -6.15683930004312      -0.06973325998986
H         1.18854718187720      -5.16830093618093       1.42126409614662
H        -0.48085831619916      -5.66296521865670       0.91695747155778
N         4.81725558627825      -2.36688350208514       3.86820710007669
S         5.29654259425866      -2.44143869556239       5.43144933596346
S         5.70993867639478      -1.58612986959935       2.74056627620213
F         5.07684431024317      -0.94598352767369       6.15072423585980
F         7.16525706167877      -2.38668224872422       2.53074898570776
O         4.47633711400014      -3.46764362005519       6.15949491757306
O         6.75191701237875      -2.80843422815355       5.50724884671740
O         5.98950048447666      -0.18100879646232       3.19423438506874
O         4.96239939525907      -1.55927751959287       1.43822140618776
