42
C10H12F18NP optimized with ForceField in AMS.
N         0.02132616542213       0.00477218210616       0.00512699506693
C        -0.89257095349215      -1.11026694910968       0.33876774637496
C         0.66506695823058       0.50180847374856       1.24125268079622
C        -0.74790113563877       1.10019987900475      -0.62562547175922
C         1.06055376909856      -0.47271599200842      -0.93385263711938
H        -0.33960527328523      -1.95118655228234       0.81442532563711
H        -1.68529412540713      -0.77859297900236       1.04655962389444
H        -1.39306270503579      -1.50342232985456      -0.57464739172568
H         1.35983492414154       1.34255182053405       1.01929740948520
H        -0.09463819468375       0.86912626822699       1.96719127203731
H         1.25029184389283      -0.30431056117793       1.73768011483003
H        -0.08407341878067       1.95415707660457      -0.88873103862085
H        -1.24477716962250       0.75287356315365      -1.55938106033865
H        -1.53799753150140       1.47978930218160       0.06068134737744
H         1.76382523451651       0.34758940827286      -1.20212845986306
H         1.65557280370944      -1.29909276828933      -0.48411909943588
H         0.60339169647574      -0.85332093030806      -1.87491016584818
P         6.51605202826038       1.96251781001878       2.08168187673463
F         7.74090541742236       1.93240652143651       3.29127829576362
F         5.51186119793932       3.35630237753050       2.22713602140054
F         7.54499905327745       0.68818307379341       1.55562533159767
C         7.68494441183417       3.38160052076251       1.46318499437505
C         5.67654920989442       1.29982466376004       3.69551869795926
C         5.45527273737622       1.15400010252126       0.68209766849625
C         9.15923003596105       3.01098273324255       1.14458815873799
C         4.15077247443735       1.07253521762642       3.65227679433017
C         5.88892337292810       1.42414243931303      -0.77159881660959
F         7.73529646016404       4.37726217743962       2.43130381386433
F         7.15206016628779       3.95960175982419       0.32838713329783
F         5.89367428983240       2.19729744514333       4.73737951910539
F         6.25826365302850       0.08693680599572       4.03823214640774
F         4.15894441143203       1.62565582303454       0.77988677617948
F         5.40718958803167      -0.22166770394399       0.86275439599164
F         9.78257224523695       4.11394403592238       0.58763294675551
F         9.25781592690873       1.97547691008658       0.24046021998608
F         9.85772468869484       2.67335995848511       2.28995678857172
F         3.71101492298886       0.77134604080851       4.92978199801701
F         3.47952895401151       2.20617246915527       3.23370062434287
F         3.82107861871900       0.00492309518367       2.84175109520470
F         5.60090715319818       2.72557337008857      -1.13558008227547
F         5.17272073515082       0.59146282028230      -1.61310747930753
F         7.22777203454388       1.16953070398865      -0.96904055241564
