39
C11H18F2N2O4S2 optimized with ADF in AMS.
N         2.37300589775304      -0.18876107354961      -0.79757628888134
C        -1.45705842770143      -0.22451071591459      -0.80816816936409
C        -0.03988056123061      -0.19000566651121      -0.24153048891733
C        -2.52161670617095      -0.17925888324254       0.28524319627160
C         0.99985400228053      -0.23365117252178      -1.35250475730484
C        -3.94610470456952      -0.21058872242593      -0.26274827884576
C        -4.99859226505101      -0.16609211861660       0.84213404001070
C         2.97209709054258      -1.34289912974995      -0.43323635110008
C         3.00935033908345       0.99534683617371      -0.67586040744957
C         4.25866994130192      -1.33718008990020       0.06655098831281
C         4.29785092490545       1.05056119470745      -0.18327101386098
C         4.93564226782475      -0.12805695732307       0.18695973626127
H        -1.58781700455580      -1.13938407333048      -1.41533351570049
H        -1.59870121427285       0.62905550048168      -1.49667515570860
H         0.10265472808934       0.72678185691757       0.35974369264507
H         0.11229252354903      -1.04565779449926       0.44145797997384
H        -2.37618293085132      -1.03369551734839       0.97317122071638
H        -2.38433624683997       0.73578175089693       0.89252831971811
H         0.91101394000390       0.61641352161885      -2.04225995509768
H         0.94087866323841      -1.14667877651730      -1.96204643111630
H        -4.08865610718588       0.64310490233852      -0.95047390920777
H        -4.07987279020735      -1.12378990380032      -0.87143648971753
H        -4.89943944824900       0.75183306183721       1.44375925143378
H        -6.01901939350133      -0.19002760129497       0.42986603187685
H        -4.89012847062827      -1.02530847993313       1.52346117269872
H         2.40673876717338      -2.25533270763707      -0.61189074505447
H         2.47362669597125       1.86987663063205      -1.03634591759292
H         4.73655181217032      -2.28773988782135       0.29875283837925
H         4.80762660459166       2.01224645161952      -0.15225632088203
H         5.96918599564494      -0.10881126723509       0.53449295510521
N         4.60204900278495      -0.38652651317831      -3.06510974349213
S         4.26962793846005       0.95623049730388      -3.87477232814659
S         4.03561150172782      -1.83422629829415      -3.46609774014674
F         2.60973160030302       1.17830601136867      -3.59772133162195
F         4.57462531728585      -2.10568809325722      -4.98515021583164
O         4.85513314452123       2.05517572656152      -3.12412725358573
O         4.35719859003071       0.89095733222586      -5.31619605265664
O         2.58210219047202      -1.90795116782027      -3.57401018891512
O         4.72205808790569      -2.80731463326063      -2.63316295030525
