63
C17H32F6N2O4S2 optimized with ADF in AMS.
N        -0.07302242127893       0.37983994595110      -0.60850227883161
C        -0.98906825185763       1.32624907891900       0.14134413511978
C        -0.75028678152495      -0.04545671302785      -1.90098032277218
C         1.19873580277275       1.11814128207399      -1.01185274370144
C         0.24252956493141      -0.81497394886877       0.28004218682201
C        -2.38113426372367       0.75733436056365       0.38273879701733
C        -2.11205691445159      -0.67214498886116      -1.66723463526525
C        -3.03482650095476       0.28987600561904      -0.91748640478672
C         2.11480568406963       1.54661816673954       0.11697499215158
C         1.09855962181278      -1.89203234576282      -0.35177985113204
C         3.29200379661821       2.33243981791365      -0.47252093611301
C         1.38744761586635      -2.99763625244483       0.66697932987512
C         4.35859888500001       2.65871315932258       0.56993385948992
C         2.15817917274496      -4.16052494688088       0.04333546947569
C         5.54048947289067       3.41599609997004      -0.03015511542243
C         2.49176747427750      -5.24874316283370       1.05813433699714
H        -1.04858837787883       2.23638357248966      -0.47660033179685
H        -0.48716530298001       1.57825007990320       1.08510788507072
H        -0.04451012389400      -0.69874021782287      -2.43273607679155
H        -0.85188453159449       0.88012212530063      -2.49086905873687
H         0.85327264173020       1.99203666779238      -1.58765476934139
H         1.72856010716458       0.46097159884236      -1.71247569048730
H        -0.72272398253643      -1.23184370085754       0.59323484607506
H         0.72584040180853      -0.39540661818152       1.17543254902679
H        -2.97753386151366       1.55432110085398       0.85698620913684
H        -2.34058102916155      -0.06761945866568       1.11291587767379
H        -2.01411198639241      -1.62729292622273      -1.12437028069632
H        -2.52883074998292      -0.92368786390055      -2.65605380959567
H        -3.23681731265705       1.16758447785239      -1.55858015655827
H        -4.00716818926692      -0.18257263636684      -0.70731336220786
H         1.58821638111532       2.17332593326215       0.85804646671234
H         2.51508752650077       0.66492169051858       0.64180833196534
H         0.59466698776450      -2.33149238077991      -1.22796237161648
H         2.05458373004237      -1.49255129288603      -0.71698851071293
H         2.91789393111432       3.26807767636817      -0.92943263380586
H         3.74101288700458       1.74251261900622      -1.28789096560135
H         1.97373963274057      -2.57919752095278       1.50700537655193
H         0.43809268819802      -3.37136385962133       1.09972026110473
H         4.71649596912560       1.71457981403351       1.01752140996932
H         3.90858306574943       3.24912085973456       1.39006911709652
H         3.08430574430781      -3.78253159430432      -0.41826825820200
H         1.55824164389259      -4.58574807726485      -0.78188194255044
H         6.30338333149156       3.63665123680979       0.73127017568227
H         6.01816443082119       2.82182752536399      -0.82373918543566
H         5.21552483761901       4.37127461588668      -0.47320496363271
H         3.05433549989323      -6.06778951640276       0.58642942164836
H         3.11404471310133      -4.84618114441017       1.87396505406364
H         1.57892028260724      -5.67560612287283       1.50716727827459
N         3.76464572146614      -2.13583131141354      -2.49024560875908
S         5.32240335367459      -2.23590702801651      -2.05577179077767
S         3.18408322207075      -1.04843256229878      -3.51317100630046
C         5.53359822481054      -0.95777947459646      -0.66611176211596
C         3.81405288928469      -1.48002756612636      -5.25790372258416
O         5.46894272410513      -3.49612885922988      -1.34211722858686
O         6.28309449093355      -1.81997584566873      -3.06688395146063
O         3.61836928788443       0.33438726773184      -3.29435464815935
O         1.74009491913340      -1.30290369710396      -3.60653000651966
F         6.55735524471375      -1.32410554557472       0.13837116064389
F         4.40719332607019      -0.87720407950582       0.10949831690692
F         5.79713797789313       0.27335401959326      -1.15222315537630
F         2.91641862183506      -1.00965214750342      -6.16223575372310
F         3.91827411722541      -2.81809664301616      -5.41125610333006
F         5.00550055407203      -0.90872261476888      -5.50491692206413
