40
C10H22F6NP optimized with ForceField in AMS.
N        -0.51466067932251       0.01641208373502      -0.00213899113828
C        -1.44031826716892      -0.54349541056273      -1.03542685183710
C        -1.40884250361501       0.63873934215909       1.02215060554919
C        -2.84334940697043      -0.04683142743038      -0.74139748709161
C        -2.83283537719212       0.19923867682601       0.74149515815306
C         0.36038456811252       1.06139171063605      -0.62775190474726
C         0.27831761194667      -1.08725829073761       0.63192557891071
C         1.38309881612487       1.70254191698964       0.34119856827327
C         1.26973747828927      -1.79159679011622      -0.32533763301624
C         2.10115135654238       2.87580157481907      -0.31930431736209
C         1.87228064713883      -3.03256445089134       0.32604212885131
H        -1.15444240925061      -0.27050238985025      -2.07656770086171
H        -1.48187232652040      -1.65648338602220      -1.00543466747892
H        -1.13070317694653       0.37539192305659       2.06780845036982
H        -1.40032429177293       1.75162957839596       0.96691697633395
H        -3.02900954995117       0.90675559681875      -1.28299923507462
H        -3.61563882073185      -0.79449605087943      -1.02592387496526
H        -3.05187459469734      -0.74621477576086       1.28490538452695
H        -3.57184657378269       0.97756852191771       1.03194431319808
H         0.91721856697861       0.63843452971699      -1.49276808010904
H        -0.27692935374898       1.87028047350558      -1.05579680868942
H         0.85063260320975      -0.70634036631767       1.50632441370932
H        -0.41851770242347      -1.85201017545925       1.04798511167448
H         0.88279499715571       2.07091891085649       1.26059322896892
H         2.15288470710420       0.96092043861808       0.63871416312006
H         2.10242338665270      -1.10759085026736      -0.58667593225516
H         0.76826484410566      -2.09875618524576      -1.26609962209524
H         2.65783916440273       2.53039266475271      -1.21648822268769
H         1.37154440235241       3.65838345968044      -0.61727553889506
H         2.82374699720670       3.32070125104371       0.39725240078304
H         2.42002768675773      -2.75492016493597       1.25150715579564
H         1.07507089741540      -3.76378786588045       0.57629280878808
H         2.58317359924113      -3.51372519080009      -0.37797291924550
P         5.76245599814493      -1.30310960818387      -0.52753141652500
F         4.73460302758897      -1.28643200293262       0.84866921460285
F         6.49380893121033       0.14335319954394       0.04169101389773
F         6.86391791584807      -2.28877368258109       0.34838597401620
F         6.86160106931231      -1.21666104151279      -1.84503283150867
F         5.07097814430658      -2.74134321270201      -1.16288862031788
F         4.57833088774652      -0.42454282490188      -1.40888953432091
