49
C13H16F18NP optimized with ADF in AMS.
N         1.43097988524485      -0.28109737261982       0.19382404460697
C         0.13135342335197      -0.59951872755178      -0.51021719484719
C         1.05874756721913       0.89675203665341       1.07275522755628
C        -0.50521131141410       0.75752164626808      -0.81259767441275
C         0.09231888899429       1.73582309938078       0.23455925317284
C         1.91118655000035      -1.43761516207030       1.05656076293013
C         2.47171758416393       0.14586415086192      -0.79867295357925
C         2.34181090962211      -2.65821616164357       0.27478536064466
H        -0.47008492157373      -1.18029935938961       0.20461863889909
H         0.33768773484896      -1.21617161491893      -1.39344189031184
H         1.97924912374483       1.40701705382227       1.38375854276907
H         0.56640182406287       0.47231275318114       1.96002638857303
H        -1.59937181361233       0.68290450129344      -0.73846976706457
H        -0.27295431580846       1.08466781104308      -1.83622582919188
H         0.61263243579529       2.56958876511362      -0.25797635401967
H        -0.68129673042868       2.17469068564042       0.87997634892029
H         2.74379476485663      -1.05083071869591       1.65627706763676
H         1.06284537229159      -1.65948860006251       1.72252423599998
H         2.66523692993130      -0.68007310616100      -1.49092392064735
H         2.09711223810763       1.01759647961483      -1.34734470346278
H         3.39062563876136       0.39185449621053      -0.25844857845350
H         2.52194085072167      -3.46515892807750       1.00011044852183
H         1.57133963601297      -3.00663232961297      -0.42975177374695
H         3.29251403985693      -2.49343892615339      -0.24695506593616
P         6.27852419479398      -1.07029093301655       1.64545503245985
F         6.09914019901928      -2.70162005157163       1.35731683964022
F         7.71744959450533      -1.32640695733292       2.41078526062199
F         4.78268179291658      -0.71727674374503       0.88076363605556
C         7.12850534765451      -1.06436005764109      -0.15850655496905
C         5.18877963279764      -1.41446138070326       3.27972182385485
C         6.57008345137514       0.88089441451462       2.04887648887210
C         6.27014132265519      -1.51916071242214      -1.39378030856268
C         5.90012704519563      -1.94068571709392       4.55884193243175
C         5.61917699646336       1.96425444468005       1.46198826730041
F         8.19591146509757      -1.92897024357076      -0.12230396021072
F         7.61828766418028       0.15706638002063      -0.57304075782110
F         4.24323428592111      -2.39280075946873       2.98503008376139
F         4.43598660419629      -0.31955609201401       3.66322625647274
F         7.83266327197961       1.25165043888789       1.65475116674048
F         6.53928762407053       1.08516248512101       3.41244021232231
F         7.09240867452996      -1.71033444372804      -2.46014010584001
F         5.37377008989694      -0.55274459703849      -1.75742014520028
F         5.57787578526191      -2.66687612112510      -1.20753968982018
F         6.53933079581312      -3.10446889092924       4.30825627253787
F         6.78432605229440      -1.05222175716338       5.05589591286276
F         4.96478203403446      -2.17945655711046       5.52902209754406
F         6.05063448924009       3.20608764436162       1.80130152932879
F         4.34497732914274       1.84184024086117       1.94538488734625
F         5.54730260171300       1.90648936160153       0.10853882831360
