58
C18H37NO2 optimized with ADF in AMS.
N         0.36661445659390       2.26382070299023      -0.62256373695475
C        -0.32516194301061       3.03454971677867      -1.72189950253750
C         1.18423422666505       3.34827447070985       0.07436399668257
C        -0.62972326518416       1.69604212164038       0.37912517899042
C         1.25836447549368       1.19228339080490      -1.19451752778230
C        -0.74924631943824       4.34865783272730      -1.06880385126462
C         0.26806387051586       4.56921628687744       0.08287897282957
C        -1.53609173075787       0.60788194530590      -0.16137172195516
C         1.95121298291638       0.34302781651209      -0.14077759428220
C        -2.46203807647947       0.11144529046559       0.95432751523040
C         3.11365009659806      -0.44712825636237      -0.74108159404663
C        -3.40806660937558      -0.99406227887863       0.49154194431648
C         3.82438470922390      -1.30403126454279       0.30543482424029
C        -4.33046792652514      -1.49499302819244       1.60197922717208
C         4.99497648295384      -2.10071606074158      -0.26652216535384
C        -5.27440713862474      -2.60216459449429       1.13854978593501
C         5.70871390549392      -2.94636938270459       0.78580892599511
H         0.43586043877800       3.20347042774308      -2.50037729372588
H        -1.14177338036814       2.43207744254802      -2.14036621295345
H         1.43506223366791       2.97236213248463       1.09095485918034
H         2.07812566266368       3.49173558568815      -0.55370588771657
H        -0.01150102990005       1.36834936085126       1.23478999425588
H        -1.20021187414111       2.55139220323303       0.76543900254259
H         0.63835187008599       0.58170344065122      -1.87003956748738
H         1.99917538864603       1.72769263756373      -1.81093713739749
H        -0.73567259631625       5.15933723668876      -1.81219928876554
H        -1.77532516303570       4.27890402723764      -0.67699636885341
H        -0.22718302855523       4.61246678148617       1.06697630239932
H         0.85795113014213       5.48647620484700      -0.05731417204916
H        -2.15750090843186       0.96772141380274      -1.00131174193459
H        -0.94833406975302      -0.24796762662588      -0.53606297709956
H         2.30821865608640       0.97607261154912       0.68779956732245
H         1.23096194267300      -0.35839309928039       0.31151513203920
H        -1.84746938165539      -0.25193598772296       1.79696311040604
H        -3.04810844532746       0.96071171892333       1.34866304672670
H         3.84268381606307       0.25324819572793      -1.19067742473358
H         2.75298904340880      -1.09455351451000      -1.56328459947946
H        -4.02142474929011      -0.62607837641853      -0.35309928548035
H        -2.81724473524922      -1.84326812315256       0.09893857690666
H         4.18083716052150      -0.65129617190487       1.12337019196623
H         3.09567981532148      -1.99779056990098       0.76442761720399
H        -4.91755385911929      -0.64460007680122       1.99323120664502
H        -3.71477630960478      -1.85854015371932       2.44444393734895
H         4.62546008570360      -2.75254769241059      -1.07971014076443
H         5.71528446916846      -1.40241945088564      -0.73112681472955
H        -5.92172376864774      -2.25089501343669       0.31847214958071
H        -5.92541283073817      -2.94616796627755       1.95712666370929
H        -4.70920522140457      -3.47324309959345       0.76948842613894
H         5.01347418273073      -3.66285625840508       1.25202173530563
H         6.54036740629575      -3.51944546922541       0.34782641794285
H         6.11985950783140      -2.31186486162547       1.58718461931314
C         0.75841923008453       2.47444613730984       4.92075693126078
C         0.58070934630401       2.62024847593837       3.40219437247879
O         1.35190896074843       1.88649786258648       2.68802946726521
O        -0.28701560246540       3.43505927849374       2.98109735164489
H         0.65190519279317       1.41858511997059       5.21331424537568
H         1.78118461659362       2.77623494953926       5.19695535695060
H         0.03523286113303       3.09042018783684       5.47168315684557
