40
C10H22F6NP optimized with ForceField in AMS.
N        -1.44492971354257       0.41072939459578      -0.08176326488066
C        -1.75425534704634      -0.86967957539410      -0.78427604084690
C        -2.52818208551295       0.58799205458218       0.92529400788191
C        -0.12748027210071       0.34966094692380       0.62241358399036
C        -3.02934033522566      -1.45072078919064      -0.18841038807249
C        -3.68905685130910      -0.29404445788450       0.51375076010579
C        -1.48216121526605       1.54987870116493      -1.03582371849539
C         1.10360461212884       0.29754887514794      -0.31225222509096
C         2.36463350928820      -0.08299866685320       0.47432166937445
C         3.60711235293657      -0.06840455551878      -0.42307856275695
C         4.85572829299542      -0.45919460777156       0.36262417111836
H        -0.94417483417972      -1.62612653685544      -0.68547786199298
H        -1.91160751371414      -0.72223851729201      -1.87797708094059
H        -2.86202612935315       1.64655553164083       1.02754187080497
H        -2.20813558272099       0.26112967363368       1.94280864077611
H        -0.10693485512054      -0.54453872863666       1.28877122460944
H        -0.01217837679509       1.23960334952051       1.28236856427705
H        -2.77102387596128      -2.23836342373936       0.55436484098979
H        -3.69229256064088      -1.88424706448729      -0.96868236455966
H        -4.34934108741079       0.25297145534903      -0.19443434274090
H        -4.28167542484582      -0.63361294180370       1.39178533995627
H        -0.79683498243044       1.38219867769639      -1.89512732979740
H        -2.50368916124668       1.68357567504671      -1.45730790133277
H        -1.18791169408153       2.49897158232165      -0.53408506030061
H         0.95214764070302      -0.43895431257285      -1.12865720502545
H         1.26015375472711       1.29831030198888      -0.77044267906885
H         2.23525965683834      -1.10181507260616       0.90232773047930
H         2.50724172327959       0.63565377705020       1.31134258543976
H         3.75179302368985       0.94929006356550      -0.84640108855462
H         3.47238681522250      -0.78374419013472      -1.26345034368499
H         5.02289324955043       0.25093006000925       1.20045337248291
H         5.74116025536430      -0.43304547169961      -0.30689695495644
H         4.74895560416536      -1.48711573918084       0.76983969031746
P         0.41907050602237       3.21531133872983       4.57425126701169
F         1.91112616713712       3.60161956543957       3.81513821094022
F        -0.31828860434072       3.90847592006034       3.18574991937023
F         0.43743402051263       1.63442569998462       3.90306093860287
F        -1.16335650138695       2.92338766658059       5.17611545859948
F         1.20830059057292       2.51705605819339       5.93110806719902
F         0.44709217629752       4.69420664299579       5.44845700107117
