40
C10H22F6NP optimized with ForceField in AMS.
N        -0.88527121706114      -0.17592121310969       0.05211910608432
C        -2.02051321734996      -0.29064231308766      -0.91355665366159
C        -1.22570808550798       0.99922833533454       0.91206016758776
C         0.38490049693303       0.08424170708615      -0.70225064534343
C        -2.84356001476592       0.97914556763464      -0.82969112324010
C        -2.64016666067900       1.44045215239680       0.58520379688884
C        -0.80254311558740      -1.40858442976361       0.90039915640827
C         1.64924526891953       0.18939302281402       0.18489171977518
C        -0.43674870313264      -2.68997175857037       0.12920429585793
C         2.85702784557084       0.65217127629119      -0.63789689491508
C         4.11176956459119       0.74423464467542       0.22618337763696
H        -2.70402995115784      -1.13382307288387      -0.65933783849558
H        -1.69057766676741      -0.45889003965919      -1.96404360237715
H        -1.14125872673037       0.78704248986285       2.00248039530714
H        -0.56469035817905       1.87131905481840       0.71233375650538
H         0.55972827561650      -0.71305586478744      -1.45868923300996
H         0.28203066807778       1.02907362759356      -1.28611852429870
H        -2.44202250344713       1.73763290077701      -1.53777877005755
H        -3.91807317043610       0.79215466025891      -1.04782161528288
H        -3.36137027518930       0.92690645934405       1.25897683094821
H        -2.76267667253035       2.54243921039295       0.67526020943628
H        -0.06385069229975      -1.27593449720619       1.72073921482948
H        -1.77858047634711      -1.58417174952497       1.40904943236403
H         1.48716150814057       0.90471572155196       1.01832733979832
H         1.88829118933360      -0.80266437193972       0.62172469985093
H        -0.55635408149000      -3.56527486825838       0.80156940335186
H         0.62071467918374      -2.66829203295395      -0.20327293908400
H        -1.09357525397606      -2.84015720218469      -0.75123716834239
H         3.04308993790002      -0.06681876887160      -1.46573494750533
H         2.65203783346437       1.65242380399744      -1.07811116680056
H         4.34817517490553      -0.24585904746765       0.67144987847280
H         3.96518782157336       1.48713579427865       1.03901968624239
H         4.97054149210350       1.06626806956543      -0.39933651753271
P         1.06026292026245       5.71236606459673      -0.13517512811189
F         1.69199907251584       7.22216599008995      -0.65553559394762
F         1.00827598985199       6.31021475531197       1.47404408156011
F        -0.54363194918115       6.26595169740121      -0.40161162430255
F         0.44705587759935       4.21338072489299       0.43109536403080
F         1.09008145017049       5.11425415794408      -1.74482000508626
F         2.65578909330204       5.12329296185810       0.10351243325835
