43
C13H27NO2 optimized with ADF in AMS.
N        -0.88515907663278       0.03751613958652      -0.41119993481935
C        -0.79754268239317      -1.37212875218517      -0.96684650898630
C        -2.28654681812783       0.04733295876934       0.15957139167759
C         0.08712202867717       0.27844771723270       0.74289026359099
C        -1.41210272427098      -2.24253612284422       0.12088816979977
C        -2.45659552895138      -1.32624962413886       0.82112981963774
C        -0.69432088786721       1.03331231084853      -1.53419382365195
C         1.56029268253736       0.44252677639224       0.39867587929405
C        -0.80696713544453       2.47889616905627      -1.09918667033784
C         2.40404741893762      -0.83005576272829       0.32705451834348
C         3.86973653702341      -0.47208767339248       0.07245253713242
C         4.76267076787987      -1.69739732127600      -0.09837730453119
H        -1.44517027580714      -1.35882460008977      -1.85891889489017
H         0.22983505446378      -1.55881432867900      -1.33721064279118
H        -2.41214136789697       0.90135398718781       0.83713245618844
H        -2.96201349741842       0.16775811055587      -0.70067558113383
H        -0.29198290961749       1.19013989335352       1.22653997663712
H        -0.06452848398152      -0.55397923130322       1.44555620560139
H        -1.87430796859977      -3.13665873160672      -0.32133727684757
H        -0.65094333603754      -2.59348058374569       0.83430517304912
H        -2.27582419495810      -1.26989126595739       1.90461460338985
H        -3.48701809874030      -1.68323066424554       0.68110529423897
H        -1.47059672921377       0.77909276610178      -2.27338343988659
H         0.30709768928748       0.83319142292730      -1.98955421802766
H         1.97292162618313       1.09376120483191       1.19233464291286
H         1.68811430193113       0.97812393418085      -0.55807864330000
H        -1.78015384003477       2.72977285771247      -0.64878965245719
H        -0.00206808472325       2.76337170420506      -0.40652308873992
H        -0.68019483569418       3.09928114832582      -1.99904748559220
H         2.06488138471013      -1.45373004503455      -0.51473170227076
H         2.31125226558664      -1.41302146346327       1.26418647184167
H         3.91198003604001       0.14745637768695      -0.84035391812578
H         4.24579393896620       0.15672359830692       0.90199861657458
H         5.80498767944955      -1.40622165156858      -0.30183955327870
H         4.75894701265061      -2.32592858422910       0.80763916396656
H         4.41026444509637      -2.31280678789781      -0.94103751924929
C         3.32549883365116      -0.62153963732567      -4.12288174429228
C         2.22459348022702      -0.37385382744648      -3.08532149363099
O         2.04504196816605       0.82690930880513      -2.70613029849114
O         1.59715162693093      -1.40238057441958      -2.68440860736090
H         3.73707252537161       0.32002030033104      -4.51103200810372
H         4.13382530576727      -1.20771351134873      -3.65748464008873
H         2.92570060307659      -1.22860662097190      -4.94897379349138
