56
C16H19F18N2P optimized with ForceField in AMS.
N         0.38763565904508      -1.52745394197555       0.33195295337722
N        -1.75688974054353      -0.94018563302172       0.31507225394851
C         1.77885423286326      -1.66986170796037       0.75745420066718
C         2.69868124163315      -0.74390741344947      -0.04868385648211
C        -3.03625117097712      -0.36373021026319       0.72505094823917
C        -0.61674780021955      -0.96549477733424       1.03212506097779
C         2.36299575654020       0.73653064323211       0.18252760225552
C        -0.13711300033062      -1.88099772755162      -0.85902863810460
C        -1.46814367758715      -1.51791084543295      -0.86899669586508
C        -3.38075220106883       0.87290841931786      -0.11470448050561
C         3.31669182126991       1.64514348879185      -0.58645570524255
C        -2.36180028429858       1.99655942056784       0.07161228144822
H         1.87447127312491      -1.43436867703432       1.84046895005869
H         2.09821682612607      -2.72470509448390       0.61447998878671
H         2.61286637902236      -0.98558828742591      -1.13058202995702
H         3.74889132690247      -0.93528262568677       0.26242099470933
H        -3.00260244109004      -0.08197547914751       1.80072864778640
H        -3.83529523835806      -1.12633966712495       0.60307331567478
H        -0.51157061923387      -0.55338268105517       2.02827791716359
H         1.32525746344198       0.94750024457779      -0.15513835673544
H         2.43502543441846       0.97302753711610       1.26646489636724
H         0.41006179543183      -2.35237732370692      -1.66504716300026
H        -2.16771395838299      -1.65097266299309      -1.68389693648320
H        -3.43421665959004       0.59747605544365      -1.19002459829625
H        -4.38223570711767       1.24461414994456       0.19157710139161
H         3.24611493781396       1.44324323415780      -1.67656198895779
H         4.36218698259263       1.48141305621501      -0.24890693735226
H         3.04622486694556       2.70659986362938      -0.40379179388512
H        -1.36517404842827       1.68596523226215      -0.30761903848840
H        -2.27762660737342       2.27004542268557       1.14480144787378
H        -2.69033465971839       2.89094398816778      -0.49731032966354
P        -1.19286691364973       6.98338899668693      -0.84037874437737
F        -1.52937087245982       5.55873850687317       0.07149898075096
F        -2.54979520160475       8.04052080480762      -0.73623407037137
F         0.23668032592764       6.03050928843733      -0.74678952817242
C        -1.07610229627402       7.74147743682528       0.93466855503164
C        -2.39605384192964       5.95808664633230      -1.95704258211633
C        -0.12506490562298       7.91023163377012      -2.14150519715925
C         0.13146989317189       7.28932792606414       1.78429130696798
C        -2.90694818289495       6.62727961553503      -3.25857536987417
C         1.15042383038494       8.61916067881118      -1.64969141660918
F        -2.21720248889292       7.39509018598510       1.64936826670309
F        -1.05163942015263       9.12579920415597       0.86819860335874
F        -3.53202639356012       5.62228520737616      -1.22647163509537
F        -1.76233296594995       4.78091253492440      -2.32548966982934
F        -0.91729293202601       8.87034366484312      -2.74488904964609
F         0.27790750540865       7.00997677735641      -3.11406196991335
F         0.02991717431423       7.85565271483225       3.04276708411989
F         1.32189771157455       7.70468648658550       1.22957843955514
F         0.15863761572977       5.91517418390590       1.93654921787870
F        -3.91594578408914       5.84356548559591      -3.79102588248890
F        -3.43130242992110       7.88502590883162      -3.02912627480963
F        -1.91396419061675       6.71460976891116      -4.21242790881561
F         0.87541599269336       9.52706342908544      -0.65032728957799
F         1.70274916632350       9.31909255858399      -2.70813647975478
F         2.09499328716222       7.70719663122215      -1.21623851806152
