52
C14H18F18NP optimized with DFTB in AMS.
N        -0.25669512370519      -0.24043235786013       0.61348524899088
C         0.72156757096598      -0.43139657645600      -0.50555811741134
C         0.62968756951947      -0.10426338407680       1.81894878715511
C         1.82890814847505      -1.30966480857506       0.06976686500053
C         1.79175823800347      -1.06503540198933       1.58551899680441
C        -1.12822224478716      -1.45384759446233       0.78597859723218
C        -1.06448314582763       1.00354150205001       0.37732180992334
C        -2.10352925551590      -1.71399194081879      -0.35016686315128
C        -2.10055133866082       1.28597135739967       1.45420143112146
H         1.10645615977020       0.55472165707393      -0.77535714723860
H         0.21997008748720      -0.86754429404913      -1.36829316406496
H         0.06536849990083      -0.34268476499854       2.71590657476554
H         0.97041495768631       0.93177295668440       1.86744774005887
H         2.79059184282941      -1.02920718885505      -0.36257791455805
H         1.64762471581339      -2.36144097806909      -0.15978314245877
H         1.63320302395693      -1.99864278731464       2.12784507777148
H         2.72100033826674      -0.61931626336317       1.94320410613751
H        -0.46048895013967      -2.30779371342259       0.90839629703082
H        -1.67954891459379      -1.31640428711769       1.71572589589557
H        -0.35128750951628       1.83014720181799       0.32098628862919
H        -1.54159615016477       0.89370928098154      -0.59961891058041
H        -2.61072611386966      -2.65276669934237      -0.12774571807668
H        -2.85729415790284      -0.93235554076609      -0.42448084469354
H        -1.60289383498114      -1.81710968427268      -1.31179863776769
H        -2.56538770340168       2.24392836775780       1.22279440772746
H        -2.87857974092631       0.52629663443283       1.48032905333755
H        -1.64312894213270       1.35500552957011       2.43751028206306
P        -2.15394810520597      -1.61246405792843       6.43884373305888
F        -2.45407156679841      -0.27010102059388       7.37165544072425
F        -3.71492970524761      -1.61964188614947       5.82912817988052
F        -0.54063572931388      -1.59430765649003       6.91556912657006
C        -1.73681920322063      -0.24345689854630       5.06160084508139
C        -2.70831585133524      -2.70575585273115       8.00832651253561
C        -1.70183761841942      -3.27198752612733       5.35714195821451
C        -0.43586173421681       0.58452982693193       5.20643664774045
C        -3.65325276293321      -3.94318037064796       7.87566822092344
C        -0.87162753893043      -3.39199424335053       4.04753895982117
F        -2.73271761210488       0.65365348075591       4.99233796165989
F        -1.66646565688727      -0.78895007963636       3.80301716423302
F        -3.36617954738806      -1.88745772742224       8.84777109993054
F        -1.61663103763581      -3.13854608867603       8.66030094883425
F        -2.85363719906939      -3.91714645981528       5.07440928468929
F        -1.02796932872715      -4.03834727259317       6.24194495409128
F        -0.40627407840789       1.54226762222968       4.24488902606534
F         0.65074257200730      -0.16326651776140       5.00085498396157
F        -0.32582283753713       1.18905219144441       6.37084672174541
F        -4.15794072390058      -4.22626237244776       9.08070605112915
F        -4.67787157118150      -3.71119802988190       7.06014461604592
F        -3.01702855270274      -5.02999562847207       7.45207176488120
F        -1.63671699459177      -3.18750705064254       2.96315579686371
F        -0.34676821450941      -4.60787244186558       3.92004087577687
F         0.14666787460844      -2.52181304944132       3.97437793639863
