54
C14H20F18NP optimized with ADF in AMS.
N        -0.68005496368460      -0.24357909250103       0.67185340061709
C        -1.06760966957747      -1.27977987848415       1.72202533393429
C        -1.74497783887862      -0.13913619282450      -0.41008254092138
C         0.62806884144314      -0.65494312918170       0.03050336226846
C        -0.55644173469731       1.10788057808149       1.37751533921134
C        -1.32996315580599      -2.67700733676474       1.20388053104507
C        -3.15072625468448       0.12625273446990       0.08454717201782
C         1.18835036373336       0.32084912147988      -0.98623186080518
C         0.67103015789305       1.26671196659811       2.25056757817591
H        -0.25015092876123      -1.28110134906357       2.45492492839607
H        -1.95083460299916      -0.87608116332848       2.22686618767479
H        -1.41049173315533       0.67106886282343      -1.07217351016020
H        -1.69330905737125      -1.08119177720757      -0.97629457296474
H         1.33272154838201      -0.81146156994524       0.85962384528805
H         0.44152220858475      -1.63047722016038      -0.43853699856899
H        -0.58254270790280       1.87118389043147       0.58551984105454
H        -1.46297742998262       1.20608914987294       1.98698314416389
H        -1.63099075128124      -3.27937959327071       2.07476710082019
H        -2.16330452264978      -2.71637589171385       0.48856213705820
H        -0.44603205547034      -3.15846298821418       0.76202752585084
H        -3.79634871894396       0.22350353383890      -0.80225237526724
H        -3.54877623412839      -0.68926006756788       0.69907839537240
H        -3.23365279766355       1.05519599124751       0.66266471128792
H         2.17090059277667      -0.05755970513160      -1.30707484094523
H         0.56244051962735       0.40097389307583      -1.88498346064903
H         1.34287258398352       1.32482987080963      -0.56893595861447
H         0.55668607205374       2.21837950764938       2.79122375478258
H         0.74383056198514       0.48689609519778       3.01943227815143
H         1.60909077702146       1.31121247880643       1.67983870238137
P        -3.72832866309699       0.71115104870582       4.78217311373126
F        -5.00872272907061       1.61942412087015       4.24267246333226
F        -3.23414985789986       0.50087388333540       3.15870368683796
F        -4.14269304892266       0.87470438119118       6.37549181783558
C        -2.70558493824161       2.41252577131697       4.89961335454840
C        -4.98054480291455      -0.83204571340037       4.65396485662189
C        -2.11717003518289      -0.40793716816404       5.24200630006237
C        -3.51427840030946       3.74703499649216       5.01074947408038
C        -5.31455238465115      -1.41669390992881       3.25071745784806
C        -1.77431651690010      -0.80392682581020       6.70961916171974
F        -1.88368845338963       2.62043627157291       3.79229826807082
F        -1.88362144396831       2.40807289369148       5.99924962023266
F        -6.19401936127699      -0.43105622411624       5.16275441585932
F        -4.59340058281405      -1.91593560502354       5.41099133514501
F        -0.97194807173208       0.22233627024009       4.76769781596918
F        -2.17207890022512      -1.60886537841439       4.55181386735749
F        -2.64036882241375       4.76096744606970       5.29258515380396
F        -4.43148177011025       3.71069868555518       5.99614416730448
F        -4.12461289250708       4.06542695861305       3.84316457073691
F        -6.29603917751238      -2.35199848021877       3.35863641418297
F        -5.74099253303403      -0.46879016655037       2.38565529625337
F        -4.23504395176039      -2.04424089868859       2.69119661999299
F        -0.65746872795872      -1.60039304700539       6.69429279802116
F        -2.76752717985017      -1.50395632725125       7.29011432608200
F        -1.49512454670324       0.27070979819479       7.47282130621402
