28
C8H18ClN optimized with DFTB in AMS.
N        -0.28451187441068       0.26017614315267      -0.03668027870489
C        -1.26329217950294       0.50315984555822      -1.14725086946119
C        -0.79434741382661      -0.97979119906212       0.62144064096811
C        -2.62042759019195       0.13023356209501      -0.56492709600385
C        -2.31839484616129      -0.86201791470740       0.57181904680790
C         1.08715568073790       0.09228364223348      -0.61807842318685
C        -0.31547076079111       1.40909381892228       0.91092723581712
C         2.16913807629277      -0.20323265445910       0.41541607994916
C         3.49849250670584      -0.43681434908952      -0.30271310300128
H        -0.99593450950944      -0.15967408503743      -1.97278059877128
H        -1.16808563734007       1.54382373733024      -1.47060234835982
H        -0.40164723991483      -1.04875219378276       1.63591793923167
H        -0.44605527445909      -1.83537111792733       0.03789067543670
H        -3.24957098072887      -0.32151409467431      -1.33337541689886
H        -3.13734192405561       1.01162821905797      -0.18009639073430
H        -2.70788679922882      -0.49262385741489       1.52271014590459
H        -2.76280764172429      -1.84042130491150       0.38074632434558
H         1.30109665616437       1.02924806850914      -1.14790775156116
H         1.02760918085119      -0.72494802328044      -1.34233210544986
H         0.05906226564699       2.28679993440158       0.37689824193278
H        -1.33968251069926       1.57740907774006       1.23316329938800
H         0.30699836435468       1.18318114842280       1.77347456865852
H         2.28143721936769       0.64076939881121       1.10047447739687
H         1.90955206223662      -1.08980143870072       1.00277288426442
H         4.28068007173370      -0.64085101700135       0.42776993214119
H         3.42409931664839      -1.28686084936088      -0.98192974554630
H         3.77794036351045       0.44627165208254      -0.87707260300151
Cl        0.52319225369429       3.08307787659258      -1.67838536186145
