61
C17H36F3NO3S optimized with ADF in AMS.
N        -0.58931067898938      -0.25379280408759      -0.20559662490577
C         0.09062055619022      -1.49188286222224       0.36689410211119
C        -1.13629657084506       0.57273677379951       0.94166259539555
C        -1.70026220486432      -0.70301248493166      -1.15093045921623
C         0.40204329317537       0.57982611623942      -1.00215883380542
C         1.35054617533728      -1.25302156000458       1.18044460062160
C        -1.95590666144868       1.79652739477206       0.56056947679829
C        -2.82994977996293      -1.48765918298793      -0.51271533491905
C         1.17444167097549      -0.18044021690849      -2.06542605599423
C         1.97342544783596      -2.61468551194893       1.51395738439294
C        -2.40970141025004       2.54414704347380       1.81925365630168
C        -3.78439823949293      -1.96396655990095      -1.61252129262021
C         2.15539933052914       0.75810939525893      -2.77047942649477
C         3.28174043049641      -2.47725476781049       2.28429571055096
C        -3.23572802891590       3.78466547609433       1.48917515495563
C        -4.93970464384608      -2.77767123955305      -1.04085310013059
C         2.93919322786138       0.02349936899680      -3.85447848227452
H         0.32074753146121      -2.14640920711013      -0.48321429182567
H        -0.66914040810534      -2.00212659702978       0.97303825485742
H        -0.26433241603216       0.87253129935392       1.54090336181545
H        -1.74101481277294      -0.11589432107100       1.54976657277883
H        -1.22024566485098      -1.32934002967843      -1.91784707790057
H        -2.07405880148608       0.21171787637696      -1.63514913723982
H         1.08368252161227       1.03454332562348      -0.26690983914243
H        -0.18429893411298       1.38860838891051      -1.46215052277536
H         1.14644662122714      -0.69900412843298       2.11386508670644
H         2.08842846293252      -0.67098807007461       0.60381045342180
H        -2.84554351696756       1.50250220837497      -0.01987361126388
H        -1.36663411697197       2.48709569661602      -0.06509203560393
H        -3.38440865739240      -0.88511413890469       0.22919553630734
H        -2.43223344621710      -2.38735794469707      -0.01798053080509
H         0.49800542479002      -0.63158133838969      -2.80834407323281
H         1.73143257233554      -1.02527751407019      -1.63241090967094
H         2.13654114153996      -3.16527311768162       0.57105381874984
H         1.25319706929341      -3.21388487135838       2.09894833848156
H        -1.52466481360183       2.83676668458534       2.41245559791225
H        -3.00241831326180       1.86335583138166       2.45684351164194
H        -3.20502529841980      -2.58099144361591      -2.31989207923343
H        -4.17384254851038      -1.09509214656669      -2.17447749507346
H         2.85440213633862       1.19140416397843      -2.03028422167898
H         1.60691606144552       1.60879120467810      -3.21614970092098
H         3.13130541251335      -1.96173579322619       3.24712743760988
H         4.02236905483789      -1.90184080157257       1.70534821061109
H         3.71529531269571      -3.46597941588650       2.49335639249875
H        -4.14246133831203       3.51844928060265       0.92273773505498
H        -2.65562447761819       4.49730598826013       0.88106387125333
H        -3.55074678488255       4.30301749261842       2.40620573661791
H        -5.54258806181542      -2.18151233451668      -0.33542105196063
H        -4.55706714477706      -3.66094183947233      -0.50581069439870
H        -5.60457898734072      -3.13153401498530      -1.84226419359031
H         2.25806846490615      -0.38835091048562      -4.61522944093202
H         3.49813578335325      -0.82292580503722      -3.42562379076036
H         3.65281233250827       0.69523395109269      -4.35234814701329
S        -0.09153600854913      -3.85515892669474      -2.41946907405556
O        -1.07417881568189      -4.20269270125353      -1.37422185061208
O         1.27973047979442      -3.60674888768511      -1.92275145339691
O        -0.57331118813592      -2.86085274123064      -3.40528399356257
C         0.07264612722315      -5.43788367002634      -3.41596160657553
F        -1.12025232522683      -5.78716031103049      -3.96853250819822
F         0.48372135192967      -6.46385805016054      -2.62456352488424
F         0.97548216941908      -5.30002289698722      -4.42326957737809
