66
C18H28F18NP optimized with ADF in AMS.
N         1.81483358235329       0.60068512656707      -0.10000236206006
C         0.37270492184325       0.42112382705572       0.34198721032973
C         1.97641018806771       0.29374175394105      -1.58201359224535
C         2.68888373586283      -0.36232105628629       0.69312006222339
C         2.22492243910431       2.05101860967213       0.15853447828833
C        -0.29490535892585      -0.89333057793679      -0.03157560141457
C         1.08081499330682       1.07837538554309      -2.52703231622272
C         4.17684487714461      -0.29891504660279       0.40098137941871
C         2.32045243496269       2.44441349230570       1.62563520324759
C        -1.72012889901979      -0.91162771209491       0.52339176344032
C         1.23840442779535       0.50813233619845      -3.93850445258147
C         4.92038363535855      -1.25446601294204       1.33373645408615
C         2.45977463554966       3.96268170399453       1.75094059728876
H        -0.18911638188292       1.26441735010593      -0.08506460538313
H         0.37190447948990       0.54138988632673       1.43418005434248
H         1.80405426787722      -0.78819922051193      -1.68636313858710
H         3.02569018746544       0.49833010361596      -1.82056853020618
H         2.30197005686039      -1.36797757560075       0.47454754070885
H         2.48822490967013      -0.14727112448768       1.75366696299041
H         1.47002690678850       2.66339410607746      -0.35500460165372
H         3.18366828814676       2.20381382932863      -0.35298086608040
H        -0.32892287504362      -1.01483721139423      -1.12549917061894
H         0.26459733397626      -1.74919612688582       0.37737610782608
H         0.02116743371466       1.01934612647950      -2.22765670265310
H         1.37296419615845       2.13977350003825      -2.53097968325944
H         4.38439360023102      -0.57988923803530      -0.64043414917278
H         4.56834764786422       0.71841507202248       0.53120945914278
H         1.42789989967003       2.12050478562628       2.18577581623293
H         3.19828984183605       1.96537056534090       2.08825493530942
H        -2.22715600821685      -1.84928556268361       0.25510114819798
H        -1.72280729319779      -0.82799371974994       1.62128736941428
H        -2.31564033214266      -0.07899102833098       0.11816034561490
H         0.64446762739853       1.08955206212577      -4.65770121813574
H         2.28851826933253       0.54355059880983      -4.26042571604393
H         0.89973279933899      -0.53922321149660      -3.98238733995073
H         5.99851294922949      -1.20826873229814       1.12508829441798
H         4.76821082664010      -0.98651453058170       2.39135615516000
H         4.59134409857678      -2.29635246200134       1.19366400771568
H         2.52776480991378       4.25058088078108       2.80982303044534
H         3.36461019660285       4.31706392565840       1.24065952007864
H         1.59000242237680       4.47740192715859       1.31313814172794
P         6.25675799091665       2.59144832036319      -2.14584372924775
F         6.97316277363115       1.47136981795232      -1.13576438862665
F         7.71113903432752       3.32166998423296      -2.42736550178302
F         4.70584021596494       1.90730937095374      -1.88230145972070
C         6.57594209588206       1.21920462632806      -3.56190898907131
C         5.94226163423006       3.62928754999002      -0.47186201502950
C         5.47471291556658       3.98998212313886      -3.35972889314134
C         6.04121233265297      -0.24497771245534      -3.35945604431864
C         7.10977417287572       4.47220053750810       0.11575796756255
C         3.97223336546284       3.92932573209016      -3.76029343504989
F         7.93424819160924       1.07551240443837      -3.71658038708301
F         6.05912480367567       1.54544149790961      -4.79920097350000
F         5.61180493391384       2.74152844447200       0.55230600031452
F         4.85390002493849       4.47431361433251      -0.55519314152769
F         6.17493322940708       4.02203656369482      -4.54155722488366
F         5.64756038705552       5.23931683596280      -2.80177756995328
F         6.52804856415853      -1.02717976565317      -4.36090275940844
F         4.67687051671347      -0.29663640701678      -3.44942897233565
F         6.39500866230289      -0.82192370672781      -2.19052458115618
F         8.19884658526806       3.70698791627625       0.34503367428384
F         7.45005614830574       5.49829937424885      -0.68950290076608
F         6.71696132669030       5.00319523266220       1.31670054587750
F         3.67233813499396       4.94126608763121      -4.61815993051847
F         3.15243876050212       4.06644397170970      -2.67914661917414
F         3.65393242267618       2.76448066260465      -4.37638881812234
