35
C11H17F3N2O2 optimized with DFTB in AMS.
N         0.66469887726108      -1.56152058703487       0.37090309188917
N        -1.19660876872196      -0.94833781571789      -0.52440157334971
C         1.86051021949505      -1.58332307403205       1.20998082966511
C         3.01171710614228      -0.77198548788788       0.60667713042627
C         2.77943590349505       0.73778746665866       0.69775691749559
C        -0.25388665687665      -0.59781058677632       0.34863116738442
C         0.33421827166735      -2.51343786856173      -0.55220561061629
C        -0.84075651748922      -2.12964960440813      -1.11691030542493
C        -2.35058537504240      -0.13114203969017      -0.88816693735436
C         3.99816293509821       1.50685644924305       0.19256488712173
C        -2.10622753933773       0.58029284129446      -2.21416188464813
H         1.58369420249920      -1.19553813889353       2.19578812309410
H         2.15542885433502      -2.63061492513510       1.31325213080380
H         3.14493234790917      -1.06049175776627      -0.43972033257735
H         3.91686293090741      -1.04380154287617       1.15892833596079
H         1.91455941545973       1.00376723806190       0.08368606755602
H         2.56669508730984       1.01991850271632       1.73624120512128
H        -0.25641784209791       0.29023657262108       0.95492444434323
H         0.97028795744007      -3.35654266388069      -0.75447903831184
H        -3.22177923533415      -0.79054277257112      -0.94967050139943
H        -2.50869896585522       0.59062093721737      -0.08178650327823
H        -1.43170821893837      -2.58235155988291      -1.89299413982825
H         4.19750433987862       1.25229543917411      -0.84837225687728
H         4.88142254099309       1.26680598616842       0.78690691236962
H         3.81375656893869       2.57911973506938       0.25939946196612
H        -1.17493692111209       1.14348199113307      -2.17134543372953
H        -2.93382300656014       1.26010960628965      -2.41158685578511
H        -2.03390199983251      -0.14091121602265      -3.02555421386221
C         1.36325435477685      -0.54362560850185      -2.56802743716762
O         2.15310319768474      -1.44924760047045      -2.32670276479605
O         0.93716678984607       0.38776994314909      -1.88308576159609
C         0.66274224632013      -0.65351224602550      -4.02353275871634
F         0.11118964777606       0.49716334857180      -4.44429650494601
F        -0.36722400498831      -1.54849134776060      -3.93922548035742
F         1.46638831855291      -1.09076859737243      -4.99656124627506
