46
C12H26F6NP optimized with DFTB in AMS.
N        -0.51946378700108       0.77822177970868      -0.09700184102844
C        -1.13778352246712      -0.32939722079935      -0.89730676091879
C        -1.59199268617405       1.42065714823131       0.73882201834390
C         0.58536342722008       0.27598485506645       0.79518583866996
C        -0.00936355550228       1.79882225972081      -1.08589627370195
C        -1.84437729787855      -1.36791642235452      -0.03329411089228
C        -2.31711137531408       0.43072603382545       1.63973955467301
C        -2.92254091731727      -0.71313877547889       0.82912536351065
C         1.79142753073134      -0.31133030468557       0.06952359055098
C         0.73862556791070       2.98293132736051      -0.47648197331433
C         2.82249672291023      -0.75664142006080       1.11645211279164
C         1.07843489665976       3.98764172893386      -1.57536583212640
C         4.06649454407793      -1.33611790787489       0.44862864060426
H        -0.34852587072952      -0.79407550568256      -1.49093128708427
H        -1.85719265443517       0.13578877232532      -1.57741163055152
H        -2.29929129093865       1.88425526488293       0.04518613968475
H        -1.11988011513603       2.19441037753715       1.34326139896335
H         0.15431514652024      -0.48032156888477       1.45167197179243
H         0.89772920833903       1.11853298988893       1.41006066715220
H        -0.88533469426158       2.15390184005646      -1.63699728293607
H         0.63775613930173       1.26627710616502      -1.78753382801084
H        -1.12572967995064      -1.89879293521336       0.59577910054056
H        -2.29859235401406      -2.09945722117848      -0.70692873797876
H        -3.10962280846779       0.98154747745630       2.15253603804127
H        -1.64094828622376       0.04056599543800       2.40384874740980
H        -3.72013534486481      -0.32728444240624       0.18570088344945
H        -3.35722126315380      -1.45614196684740       1.50152116215353
H         2.25179399932262       0.43456194069552      -0.58275193404881
H         1.50051792928692      -1.16947501712182      -0.54487012915273
H         0.13254371469592       3.47802011735659       0.28368640087204
H         1.66236198176535       2.64981412761579      -0.00271517961645
H         2.37226868725965      -1.50848811885630       1.77280213612278
H         3.10264691135692       0.10436621028075       1.72887841431848
H         1.60994384313794       4.82806285960773      -1.13137839130222
H         1.71579909377841       3.53149259288009      -2.33397925075625
H         0.17267401381376       4.36020042922794      -2.05615900858748
H         4.54021935079423      -0.58914495200648      -0.18935787802866
H         3.80965008871519      -2.20352391045968      -0.16187750795251
H         4.78188597761534      -1.64583662038160       1.20990030121828
P         1.78358475989343       3.27882634682599       3.16584958609158
F         1.01802252441532       4.22921772523287       4.24069489602304
F         1.61603874429529       4.42445209321283       1.99048621238633
F         3.23991224798751       3.86292293973796       3.58180022887427
F         2.50765129471752       2.27473844545393       2.01978643253206
F         1.89941532399524       2.06281659684061       4.25666145723878
F         0.28125973821266       2.64286715882693       2.68054736997940
