61
C17H36F3NO3S optimized with ADF in AMS.
N         0.12489133260391       0.36935986628555       0.09461558383894
C         0.85621849511936      -0.83433116339913       0.64652049753462
C        -0.71564169507430       1.00076273209848       1.19379327250642
C        -0.75948596770569      -0.07679704337736      -1.06350822368594
C         1.09462825396163       1.42244167806037      -0.42873691895710
C         1.85229507569420      -0.55605061143705       1.75975508609866
C        -1.62737341496324       2.12421862185975       0.73794079360380
C        -1.92046190483556      -0.99134331587210      -0.71445797033584
C         2.14019149245460       0.92678100502321      -1.41166603462028
C         2.51793673489245      -1.86023928983882       2.20750054431167
C        -2.42721810317710       2.67629367930268       1.91843797143054
C        -2.73677155909486      -1.24065736400971      -1.98938300702746
C         2.84216660692332       2.13352706033555      -2.04598077072851
C         3.52025243878636      -1.63973130770485       3.33678694771887
C        -3.35122633421384       3.80718586925901       1.47229534079694
C        -3.96478696451912      -2.10696907217954      -1.73133439625863
C         3.83375413058921       1.71306812096638      -3.12537532228633
H         1.36285450752045      -1.30187515687866      -0.21107002247862
H         0.08103089477904      -1.53036094620941       0.99775056058711
H        -0.00188619042500       1.37045819089956       1.94392265816988
H        -1.29202762399163       0.18107357165967       1.65007378944425
H        -0.09000043527027      -0.57116226170795      -1.77930189194868
H        -1.14613452286050       0.83815008229230      -1.53700916874066
H         1.56799817151710       1.87471841151052       0.45599277089594
H         0.46993826258068       2.18319422389356      -0.92382301747057
H         1.35212302421074      -0.09833760529286       2.62904789568246
H         2.63054498742060       0.14669601005542       1.41958283109120
H        -2.32281603524641       1.78384754403707      -0.04385440323790
H        -1.04828696840247       2.93808694501647       0.27490302256345
H        -2.58230908305070      -0.51917069777481       0.03029133106347
H        -1.58243322783223      -1.95663549456982      -0.29794749655549
H         1.66663046357190       0.35331092968136      -2.22355534798449
H         2.88678493807474       0.27265650915155      -0.92793565307045
H         3.02559084043162      -2.32588583943304       1.34369680571698
H         1.73937129953689      -2.57263223020135       2.53529534182633
H        -1.73761829866093       3.04284828683947       2.70139455465568
H        -3.02298293185027       1.86545028903845       2.37740523648456
H        -2.09087984248287      -1.71887640824642      -2.74726836370647
H        -3.03760268804667      -0.26490578999257      -2.40556332623985
H         3.35751973346088       2.71591351978000      -1.26065415745811
H         2.07308882117977       2.79443433060116      -2.47943594994270
H         3.02945427672301      -1.20021909615941       4.21991473911370
H         4.32474866777609      -0.95534115198620       3.02322548256649
H         3.98469261409408      -2.58721976797075       3.64569711567607
H        -4.04929771212624       3.45492111606792       0.69687082443894
H        -2.76998670512366       4.63376151625540       1.03544937923601
H        -3.93811155541271       4.20240178156136       2.31408057419735
H        -4.62931538253120      -1.63444412896271      -0.98993198230685
H        -3.68482681966392      -3.10278023205132      -1.35052187284852
H        -4.54505437491747      -2.24829355569008      -2.65486778756032
H         3.31539555680542       1.17317354155320      -3.93392590542994
H         4.61834532011301       1.05286101029895      -2.72028790084780
H         4.32544581216916       2.58955143110251      -3.57188467490578
S        -1.57144424832785       3.21543474412377      -2.99688894729343
O        -2.46656167674527       2.15161843529240      -2.48351998136052
O        -0.44803678115179       3.53896442453689      -2.08242459741064
O        -2.21618428322571       4.34929991481489      -3.65164003541441
C        -0.67895493194198       2.33838340802139      -4.40417354455410
F        -1.53581696877858       1.95993826215097      -5.38478040679402
F        -0.04500342397153       1.19460763861849      -3.96142403758273
F         0.27926213583135       3.12677234900022      -4.95738472680720
