24
C4H12F6NP optimized with ADF in AMS.
N         0.34039879344271      -0.20304348465094       0.11058892003957
C        -0.58708452016304      -1.31662550742798       0.50424406755070
C         1.11436521036395       0.23682250252187       1.32692116254457
C        -0.44511252685244       0.95753453015330      -0.40914479646752
C         1.26310348511514      -0.69530546147369      -0.97421939966852
H         0.02760114359037      -2.13853922373294       0.89362210592504
H        -1.27144084253273      -0.94080324594906       1.27571815946786
H        -1.14686308978534      -1.63355712494085      -0.38488454869687
H         1.85805177282465       0.98054781443138       1.01640360133371
H         0.39633134049084       0.67648374327743       2.03202221881191
H         1.62423415693822      -0.62728524801283       1.76809144281300
H         0.25661302821950       1.75427081648745      -0.68772638290187
H        -1.01904977632730       0.63533297363440      -1.28693068486831
H        -1.12048058130940       1.31034455396285       0.38055357050288
H         1.98708293804589       0.09647184616795      -1.20023725033985
H         1.78983756393828      -1.58277626388594      -0.60561456111277
H         0.64695563393782      -0.92337757091216      -1.85426731077350
P         3.64836515621102      -2.64019195866018       1.54407385540543
F         4.09523611572874      -3.44208655502930       0.18310028058077
F         5.19735176390611      -2.40101812819344       1.99104048327694
F         3.66801380764992      -1.20078488093022       0.67491578513616
F         3.09630610251994      -1.78055315878160       2.86130253503687
F         2.01490961405120      -2.83518693017382       1.07132434190105
F         3.54642081229594      -4.03353756608168       2.38862897770276
