58
C16H22F18NP optimized with ADF in AMS.
N         0.42563504470206       0.81871018049925       0.18540504857439
C        -0.79711372386408       1.09699839944862      -0.66166078102118
C         0.25598103704422      -0.52909667053592       0.86530894655213
C         1.63223050252622       0.76976268020947      -0.74741814969504
C        -2.08711253122654       1.05926031519029       0.13948715039070
C        -1.04767326440141      -0.65440613537586       1.64137787993887
C         0.63746206903064       1.89996029718324       1.24778399883509
C        -2.26826801741307      -0.31303988166926       0.78929933275642
C         2.88879325906155       0.12878214319916      -0.17918447174787
C         0.49622622314051       3.32367418088276       0.75538456006482
C         4.05994503551519       0.35940718205950      -1.13520153061611
H        -0.81188820229286       0.30955777690339      -1.43285016533075
H        -0.63008660442518       2.06155528215907      -1.16039866456608
H         1.12289860761994      -0.66034393793784       1.52451313050949
H         0.30235775614411      -1.27702874418365       0.05620928513149
H         1.82658298999460       1.81246668845770      -1.03685379892242
H         1.29810398533107       0.22649496959757      -1.64596250122730
H        -2.91550607662964       1.28289537397341      -0.55267038310681
H        -2.09320518837083       1.85427911966924       0.90354738012358
H        -1.01632867532349      -0.02336461835750       2.54244480225798
H        -1.09872814676921      -1.69212923079392       2.00913154299029
H        -0.07943253600538       1.69938080710621       2.05102371934676
H         1.63455197030723       1.72066268381659       1.66249838279567
H        -3.18030294029282      -0.33316670350122       1.40519904281702
H        -2.39775255770505      -1.07404608604284      -0.00195379239522
H         3.14113512217562       0.55009599741687       0.80369487505177
H         2.73570374777626      -0.95425786719377      -0.04787119730713
H         0.81425911482172       3.96875934237823       1.58724179572197
H         1.15784761497598       3.55742179690265      -0.09008322340616
H        -0.53813092899113       3.58926832698821       0.49404727596067
H         4.96235556509602      -0.13239477052525      -0.74562232174982
H         3.85397308900517      -0.04847180313605      -2.13758664136274
H         4.28317993928374       1.43187981694194      -1.23038377462031
P         3.59834810156432       2.33839466435508       4.03625255701353
F         3.19906238373019       1.08008843270204       2.95362111568444
F         2.48417200455772       3.32309622862043       3.23875345269663
F         4.70254288404632       1.37385712155097       4.81632743900928
C         2.16530029249609       1.58577130596144       5.19313035018439
C         5.02247882838150       2.79177753534359       2.71430679729533
C         3.93073654784951       3.89933634158222       5.23270469501272
C         1.79322319885666       0.07147690690597       5.04703652072624
C         4.66392780505699       3.64526580136989       1.46215326640308
C         4.98522160832523       3.84713545227282       6.38190134723993
F         0.95799392450503       2.24050416592414       5.01004367041027
F         2.50194557175006       1.70880764134775       6.51824961043003
F         5.52956446523720       1.61496872774256       2.18925067137640
F         6.08854058693866       3.43271434169810       3.29454324163923
F         2.74178372425036       4.25066041920098       5.83863750076070
F         4.29337303230417       4.98025827794147       4.45740737474790
F         0.96586037905309      -0.28650152562935       6.06894429217447
F         2.86241350775256      -0.74431632825612       5.07656608826105
F         1.09534220186727      -0.17547039177874       3.89356963885452
F         3.66005687429123       3.06225006423862       0.73479363519077
F         4.28196710410569       4.89903305072636       1.76570323082357
F         5.74424304664997       3.73065888048296       0.63533452098912
F         4.65554158153758       2.94979689302389       7.33508927193840
F         5.04412781190501       5.07650949082881       6.97459961881252
F         6.22203642674645       3.55244238381382       5.92695789958131
