51
C13H24F6N2O4S2 optimized with ForceField in AMS.
N        -1.37847624578353       0.17747635547480      -0.06679940684085
C        -1.65549904348319      -1.01620680707935      -0.92446100450169
C        -2.47528353262824       0.18457044502569       0.94943612845395
C        -0.05984319943557       0.02203828691069       0.62993726247729
C        -3.02673340623118      -1.55477177941387      -0.56109132309840
C        -3.19745714723699      -1.14607296003027       0.87424348211191
C        -1.43985322781940       1.41869343833450      -0.90467515216400
C         1.17176711062053       0.01887882606964      -0.30843704744772
C        -1.17287833619545       2.72509437701384      -0.13506202944960
C         2.44119189686858      -0.35744251124238       0.46694423013625
C         3.67556246187837      -0.34031807497283      -0.44205497465587
C         4.93149327467337      -0.72568408796902       0.33411755226389
H        -1.61450704098293      -0.79428365396292      -2.01562346353580
H        -0.92873315842778      -1.84189362724098      -0.74604645324812
H        -2.11357444451523       0.36106634969524       1.98843612704173
H        -3.23476140474843       0.97378931626174       0.74346769772281
H         0.08140500164053       0.82975483917469       1.38195197902849
H        -0.06129857747607      -0.92774060070751       1.21416619298613
H        -3.80407451469689      -1.06392967870852      -1.18812337900441
H        -3.08855209121932      -2.65822129561409      -0.68208415773188
H        -2.69921738005381      -1.88518232284575       1.54036545657494
H        -4.27078305294498      -1.05521174259361       1.14968601599208
H        -2.44435068027396       1.50444666337717      -1.38006747988038
H        -0.71882939614076       1.36145257716456      -1.74934739657093
H         1.31657784314483       1.02894409030416      -0.74597064972844
H         1.03181217217218      -0.70342998755141      -1.13957983986108
H        -1.83725033635467       2.82528139027475       0.74688647025717
H        -0.11590486948193       2.79016912013487       0.19291858459955
H        -1.36599061558153       3.58782606721858      -0.80724092994747
H         2.32043868670992      -1.37511008378255       0.89981958911410
H         2.58990763532062       0.36467236296959       1.30015623922004
H         3.53641183728013      -1.05757908645190      -1.28021994954241
H         3.81368928092818       0.67742251549706      -0.86787775470177
H         5.81407549041039      -0.68435291357712      -0.33826945985819
H         5.09292127162873      -0.02140820829816       1.17657544112380
H         4.83613826080343      -1.75741498014522       0.73454602230951
N         8.84588407283906       0.19877997029257       4.24943733275053
S         9.86175902817303       0.25983057137645       2.96470589866176
S         8.04606603239209       1.51574047559177       4.80889837010750
C        11.51863813940040       0.57051248541803       3.54018000833095
C         6.39359949154037       1.52116570474279       4.14676754596467
O         9.83556044786657      -1.06213975634397       2.25203954054225
O         9.44838091556812       1.35010415601462       2.01534812628833
O         8.75129642978759       2.78001251145674       4.40253587284148
O         7.96709318171755       1.44472449013316       6.30713213762387
F        12.38460511859957       0.59538561030617       2.46353942666860
F        11.90039456845056      -0.43202956439290       4.41134049595089
F        11.56664198584255       1.78682161489235       4.19385189763906
F         5.70387769314560       2.61482458023100       4.63427903384413
F         5.74028918776478       0.36269435010113       4.52245220168380
F         6.44678718124419       1.59159571576597       2.76842965065756
