55
C17H36ClN optimized with ADF in AMS.
N        -0.51032695008986       1.68798991264632      -0.20336948621953
C        -1.39303638861746       2.21015456907963      -1.32921231199437
C        -0.25711177852459       2.81996104362860       0.78022557306143
C        -1.16178475904560       0.52928415084371       0.53815827583118
C         0.79571360832783       1.26939573467286      -0.83687620590209
C        -2.68124199879451       2.83557581028212      -0.83739653161366
C        -1.53535425313576       3.46302321385017       1.28679819099404
C        -2.39618597011123       3.97925737770947       0.13536094284272
C        -1.42769818030681      -0.70548534887091      -0.29941371310427
C         1.81429344932655       0.66003066936440       0.10481078953458
C        -2.20396778384210      -1.70849812770936       0.55899305425725
C         3.08927960157304       0.31970683227258      -0.66243289615994
C        -2.60256025201278      -2.95563378849670      -0.22063048392771
C         4.15332316970328      -0.30448793872140       0.23257807047742
C        -3.39159572577669      -3.94698057106725       0.63162596684775
C         5.43039653378613      -0.65134116743603      -0.52565463983382
C        -3.79972116434872      -5.19564929420200      -0.14589021872941
C         6.49162295612498      -1.27659665614814       0.37434453711779
H        -0.76532729497886       2.94721882617454      -1.86073606748815
H        -1.56754497580780       1.36047486320535      -2.00389811223525
H         0.32999075555390       2.39108628157838       1.60367827572129
H         0.37189308326307       3.54644218226185       0.23615881969383
H        -0.48607624257540       0.30053289882231       1.37650996155768
H        -2.12942475066229       0.88370554525610       0.97355903955959
H         0.53656581619302       0.55520085628516      -1.63311275429168
H         1.20867765094628       2.17142378086169      -1.31721654931963
H        -3.22838501190753       3.19371817933681      -1.72614419588327
H        -3.32244300463390       2.09176771828932      -0.31828287373785
H        -2.14106960109506       2.74533813312274       1.87639041048109
H        -1.23434393192930       4.28346187203911       1.96072340846930
H        -3.34862350904560       4.35579559796439       0.53944467268715
H        -1.88507443650982       4.81290016773063      -0.38599598398933
H        -2.05947716312449      -0.45131769038137      -1.16846227812341
H        -0.50217198048750      -1.17420619075834      -0.68501536325704
H         1.41377687127105      -0.25747152722196       0.56571968772396
H         2.06280718678172       1.35803806144510       0.92149262287079
H        -3.09778970078564      -1.19070817016736       0.95695904358093
H        -1.59217839382573      -1.99809315699073       1.43419351048319
H         3.49531340645998       1.23484207070975      -1.13297068925203
H         2.84808604831431      -0.37651387922078      -1.48725734688765
H        -3.21676032351052      -2.65976332404513      -1.09298263742707
H        -1.70159655819298      -3.45584468703122      -0.62864328529522
H         4.39171951996235       0.39182829052516       1.05882192472254
H         3.74402093410388      -1.21754494882746       0.70477927148473
H        -2.78224871702238      -4.23088076322457       1.50938670323185
H        -4.28583832338694      -3.43539858236501       1.02997739258691
H         5.18071507932169      -1.34232245667075      -1.35170401724711
H         5.82800154928016       0.26562770839831      -0.99840326934337
H        -4.36752744313376      -5.90076941647344       0.48059439901809
H        -2.91315561601445      -5.72545437673544      -0.53232939017982
H        -4.43077467804658      -4.92872009044398      -1.00955571451555
H         6.76703393753977      -0.58842649857600       1.19009032441662
H         6.11540150290546      -2.20470938355885       0.83459811897178
H         7.40690077627596      -1.52312810593146      -0.18428528815118
Cl       -4.12108237353173       1.17152067431907       1.78276400618394
