40
C12H22F3NO2 optimized with ADF in AMS.
N        -0.36536777951005       0.42306310495937       0.56371533388196
C        -1.45454736302030       1.37246063561890       0.06688451020993
C        -0.81135703448246      -1.01816236029473       0.34613988158726
C         0.86518959550241       0.70536172698476      -0.27855043421259
C        -2.83221194405725       1.07049038117976       0.62243812599453
C        -2.18941354690460      -1.30693618135476       0.91057598742585
C        -3.23726697854738      -0.36965265301556       0.31672018936677
C        -0.07438351288054       0.67761696064325       2.01692057095915
C         2.10065788032569      -0.12356289527272       0.02690264919137
C         3.22478414933722       0.22988633548616      -0.95265100424441
C         4.49395646317968      -0.57286543431152      -0.68404361117443
H        -1.44412530467272       1.26798230393125      -1.03169378659489
H        -1.10980978326749       2.38567984362707       0.32660637203638
H        -0.04328238406747      -1.65406923481270       0.80685575582021
H        -0.78985132493518      -1.16734571453257      -0.74760112146261
H         1.07993870210310       1.77824102563292      -0.14692387755365
H         0.55724227035402       0.54967551570002      -1.32485329442364
H        -3.52727163979184       1.79333551296960       0.16338012505117
H        -2.86743049846088       1.21295883566675       1.71787251991864
H        -2.19771191223304      -1.18533061806362       2.00831703605351
H        -2.41556960929880      -2.36342085557711       0.68929041180595
H        -4.21666178177445      -0.57968900058774       0.77017510247230
H        -3.32352607621026      -0.52754119196362      -0.77690570329677
H        -0.98395111106807       0.54815302130998       2.63546481235019
H         0.69167855823532      -0.03611551658792       2.34226604279297
H         0.30662299205247       1.70471034267721       2.10483409235823
H         1.88030617855864      -1.19975635044883      -0.06231967708139
H         2.45078497057124       0.06032660589242       1.05539237037634
H         3.44579373793973       1.31040074910736      -0.88361221795328
H         2.88060336029464       0.04484511711961      -1.98626591080206
H         4.30467000391741      -1.65415494811932      -0.77500418504827
H         4.87554954907234      -0.38210557869379       0.33111974653498
H         5.28721300374183      -0.30863933673815      -1.39828870428138
C        -3.36789588027701      -0.13700827697401       4.47080368121967
O        -3.24670457465995      -0.28727992049221       5.68992021649466
O        -2.55560737392394       0.27569986800213       3.58353376886032
C        -4.75234280940778      -0.55307819516057       3.84807099833748
F        -5.23942732643661       0.38474181974061       2.95813527246774
F        -5.73624252590232      -0.76847082307770       4.75660226851789
F        -4.62425405699537      -1.72794460916998       3.12140339484392
