38
C10H20F3NO3S optimized with ForceField in AMS.
N        -0.02404341344018       0.26061071699120       0.15859990992079
C        -0.94376919260944       1.25249762669883      -0.48570808868139
C        -0.45514129014598      -1.13417109904822      -0.16529318718026
C         1.34188821578728       0.51529454933109      -0.40943647291217
C        -2.43894240455917       1.01162383583792      -0.20416303856868
C        -1.93407193423396      -1.41088353646050       0.15164310530282
C        -2.83817601455697      -0.41472475203908      -0.56331160140367
C         0.00341634254498       0.47792617171834       1.63094137649428
C         2.47868017105578      -0.37722968949884       0.14607596323480
C         3.80602119293885      -0.04843248666516      -0.53393571827444
H        -0.81838948778612       1.23287019546004      -1.59355494396440
H        -0.69188452051511       2.28747539097849      -0.15892368608593
H         0.13988250403672      -1.87805544121841       0.40703733056077
H        -0.29133126077333      -1.34764772537462      -1.24670061698374
H         1.63179493518542       1.57750267833615      -0.23234333803293
H         1.32257327557855       0.38048866597792      -1.51603149514187
H        -3.03826939821238       1.71616581242582      -0.82058237984462
H        -2.68738213937499       1.22454721768625       0.85604442892990
H        -2.11442631861444      -1.37247674457869       1.24701760739718
H        -2.18810469767620      -2.43717247259310      -0.18812325527249
H        -3.89443277113743      -0.59068766717355      -0.26589790711953
H        -2.76007741035990      -0.56091305645308      -1.66342919450087
H         0.56862278882477      -0.32421962021035       2.15140952897684
H         0.46826601762450       1.45702519757604       1.88295677216932
H        -1.00968705349121       0.47111736395961       2.07748264266638
H         2.61037624259872      -0.21426934771552       1.23533149052960
H         2.26689413357624      -1.44999875793909      -0.03634810944594
H         3.73611956537090      -0.23086203021031      -1.62762363695784
H         4.07951728203044       1.01353088306261      -0.35640805578603
H         4.60763741392740      -0.69511687805361      -0.11859313338771
S        -4.93539928973536      -4.41563849406863       0.56178427033952
O        -4.05423743430087      -4.40397075743270      -0.69548144254356
O        -6.34206590910846      -4.15855171210329       0.00293048225791
O        -4.58579505307938      -3.08768612638940       1.24807648376217
C        -4.77594090991019      -5.89121901107891       1.60474672775285
F        -3.45914748005867      -6.03871033307943       1.99596774935561
F        -5.17153129230485      -7.00495388436472       0.88949494606472
F        -5.57596327399593      -5.75348688509110       2.72260277797258
