23
C7H12N2O2 optimized with ForceField in AMS.
N         1.11267637465161       0.01279336224278      -0.01082080116522
N        -1.11033407256967       0.01799253671308      -0.05698370110366
C        -0.00022679860558      -0.74672432545761      -0.04427688258637
C         0.69393481007701       1.29347651210178       0.00055320441046
C        -0.68631446944434       1.29674260238161      -0.02744932592308
C         2.49589480442673      -0.44703909142631       0.01299413226654
C        -2.49605836708436      -0.43596579674988      -0.06502692063666
H        -0.00248182543553      -1.82994564317926      -0.04955510171224
H         1.34198547068825       2.15977592274570       0.03305013423368
H        -1.33094819955736       2.16602473101912      -0.01613566599367
H         2.53943720998475      -1.55696069414440       0.00641201057408
H         3.03265668764928      -0.06224338818876      -0.87959680377720
H         2.99885266728236      -0.07412614363425       0.92997979972645
H        -3.02430005834903      -0.04349189706544       0.82953324298249
H        -3.00594305733056      -0.06604153756452      -0.97883432876273
H        -2.54400306523212      -1.54561324268174      -0.04889479250298
C        -1.84220598921850      -0.10782137483593       5.16134572325383
C        -1.34860145288687      -0.91216597191814       4.00219959295447
O        -1.19874331446174      -0.38336525940566       2.91433490232905
O        -1.09989988176108      -2.09905691296179       4.13833017995007
H        -1.49172862616488       0.94241862684026       5.07216347607780
H        -2.95202578524319      -0.12107903770147       5.17588002511472
H        -1.45742815711516      -0.53073310852918       6.11316839409019
