51
C13H28F2N2O4S2 optimized with ForceField in AMS.
N        -0.69465240386757       0.53961799912812      -0.20229734685559
C        -1.66489935574914       0.28718504469126      -1.31744008287933
C        -1.25285136905753       1.61451269710310       0.68217447141699
C         0.56691304416750       1.05064872321351      -0.84159662103359
C        -0.44146771928649      -0.69923684028276       0.61455106817885
C        -3.08424808228123      -0.07268488992712      -0.84644829002041
C        -2.67542127003573       1.32208684518183       1.20466526635309
C        -3.63993334381203       1.02087172981432       0.06063960798629
C         1.76239311283911       1.29318303710336       0.11496196378473
C         0.22435379387743      -1.87815190878536      -0.13680185294519
C         2.96818517350148       1.82817570727228      -0.66639975918913
C         0.43226605349732      -3.06784107705061       0.80981564438081
C         4.17929621627586       2.03653616666566       0.23802204037848
C         1.09042120661166      -4.24156385793316       0.08990410195662
H        -1.30357519079552      -0.50664441610589      -2.00369931481824
H        -1.75957176613908       1.19806842022470      -1.95442725363995
H        -1.29205651509420       2.58685008842566       0.13856420523126
H        -0.60777971205444       1.77349279921286       1.57307989751564
H         0.36197905296862       2.01308518802721      -1.36676640134335
H         0.90180329326547       0.35698841482494      -1.64555999924473
H        -1.38340633394819      -1.08794237792691       1.04757976966285
H         0.18232577899453      -0.45189682168745       1.50164831924698
H        -3.10140184141205      -1.05511613460029      -0.33133125326016
H        -3.74416187291872      -0.16686302655500      -1.73594726900624
H        -3.04521537822162       2.21309758075514       1.75660040965789
H        -2.66809343560045       0.48170169534506       1.92953460455171
H        -3.80947040912940       1.94575270267633      -0.53390597397681
H        -4.61844761519954       0.69545391288211       0.47598657686380
H         2.06895835552509       0.34659019751307       0.60531981037524
H         1.49511528190985       2.03365896749366       0.89624784149225
H         1.21331535734458      -1.58042277897021      -0.54132224524463
H        -0.41950914349489      -2.21663150902613      -0.97353830809107
H         2.70742246531283       2.79597796667814      -1.14838835869171
H         3.24105205215178       1.09965652720851      -1.45756867519763
H        -0.54894942426499      -3.40153123041297       1.21360971571775
H         1.07745726231873      -2.76243827653686       1.66266411480759
H         4.48702064936775       1.07324657781632       0.69818960784055
H         3.94332430110433       2.76965887041183       1.03849000199718
H         5.02712096013947       2.42717642390467      -0.36423818202134
H         2.08880129172258      -3.94537205038593      -0.29709821087150
H         0.45405843580326      -4.58146905302206      -0.75505766243331
H         1.22005202544094      -5.08644340607078       0.79893455054166
N         4.52725625465686       1.03240218682835      -3.73103409628188
S         3.37705472711207       1.46642407303465      -4.81052244208570
S         5.92767391792709       0.33019347223252      -4.20085783408530
F         2.59343996635240       0.09554467382606      -5.36687318095310
F         6.92667375430862       1.49178310886982      -4.87546880913300
O         2.38038403494235       2.37208052778292      -4.14463137004748
O         4.00838242816440       2.17578204870318      -5.97550977573148
O         5.65230303930805      -0.73450173800091      -5.22540546830220
O         6.60770548385077      -0.27769900217076      -3.00717620605415
