43
C13H28ClN optimized with ADF in AMS.
N        -1.56091841148691       0.09309538960543       0.02623520815101
C        -2.59157964147906       0.34227573158945      -1.06732145055250
C        -1.78655124225719      -1.30197373079930       0.60281243862889
C        -0.20947651079870       0.10940793236414      -0.66895819426190
C        -1.64029268018411       1.11469256796526       1.13209338605122
C        -4.01892867212052       0.14904196783404      -0.59158988385339
C        -3.21253129231320      -1.52599144972903       1.07733807759449
C        -4.20733867643731      -1.26958357032664      -0.05332482804440
C         0.98712803706209      -0.08449963322206       0.23914600762104
C        -1.32862303376383       2.53743845524951       0.71238374611347
C         2.25911638335259      -0.13691988382999      -0.60786625250854
C         3.51336864255554      -0.33948694065966       0.23509061318347
C         4.78665812292623      -0.39761516627339      -0.60410524389650
C         6.03756703337120      -0.60193338086092       0.24372053740501
H        -2.34086236517096      -0.41517606416215      -1.84487583993580
H        -2.40161556751643       1.35269931904795      -1.45401982475160
H        -1.06391201298163      -1.42129014441236       1.42123411709933
H        -1.55082730926232      -1.98821807349993      -0.24188807069779
H        -0.14887238824429       1.06942665654811      -1.20322164465406
H        -0.28692183817574      -0.70767646507150      -1.42098643611283
H        -2.65284832857992       1.04826147666166       1.54741956034145
H        -0.94234417879415       0.77402920483373       1.91062316418117
H        -4.67058184040674       0.32242779247875      -1.46454806442922
H        -4.30811744190408       0.89866263822516       0.16833827780329
H        -3.45548786244800      -0.90631896763653       1.95988902134351
H        -3.26805052839849      -2.57619682438564       1.41113994594938
H        -5.24095773093977      -1.42167327269139       0.29663662255187
H        -4.00433507098817      -1.98468310513397      -0.87059138084119
H         1.08323860560201       0.72527727357895       0.98418694871457
H         0.90317048101499      -1.03437436733765       0.79128325586283
H        -0.29509992416014       2.65165208215752       0.35872091273985
H        -2.00984885215269       2.90007690870125      -0.06935073246273
H        -1.45529031264920       3.19206137095880       1.58750555729710
H         2.35434442121815       0.79799258420274      -1.19064864475495
H         2.16243735479921      -0.95630453577223      -1.34161679925124
H         3.41486449046981      -1.27584884410704       0.81606398288337
H         3.59789714024754       0.47901774381122       0.97541648506207
H         4.69158998628212      -1.21521546833129      -1.34052195184859
H         4.87481877901573       0.53640835034133      -1.18795593105166
H         5.97498183806453      -1.54344608985968       0.81209892521446
H         6.94648339150044      -0.64119047576955      -0.37475862341514
H         6.15741467102491       0.21836591303535       0.96944282274912
Cl       -1.42500418209352      -2.43362712131847      -2.49600595031793
