27
C7H10F2N2O4S2 optimized with DFTB in AMS.
N        -0.68290282333744       0.68372302524468      -0.21888152024447
C         0.63089445340228       0.30514188515946       0.32502446556819
C        -0.79834669434456       1.81024298848268      -0.94139864491002
C        -1.75980636844256      -0.06343009460704       0.07788118321427
C         0.83192994905082       0.89656574017819       1.71583419521738
C        -2.02035088325501       2.18243207818101      -1.46011803307672
C        -3.00380766179574       0.27381958782191      -0.41016613706948
C        -3.14203813395996       1.40529704694646      -1.20392706815884
H         0.67541596014895      -0.78666403348093       0.35633968032718
H         1.39448565485126       0.67197903208237      -0.36538437282791
H         0.09877909889083       2.39882095894812      -1.08530782914485
H        -1.59890275721963      -0.92558616052513       0.71316879970308
H         0.76843317886209       1.98235596573411       1.67813873846044
H         1.81633765993046       0.60570285729119       2.07934140526669
H         0.07172298227992       0.52505042053801       2.40003028912901
H        -2.09729086442312       3.09881088459993      -2.03086344693640
H        -3.86318600734682      -0.32380525677553      -0.13616733345305
H        -4.11396675114680       1.70037293969516      -1.58031352883180
N        -3.21069824209130       3.51274725450826       0.85049971548025
S        -4.64001157498571       2.88370076440083       1.18207178839299
S        -2.03612261503556       3.29623796099347       1.87915130497404
F        -5.20236832882015       3.73946476009688       2.41672704050621
F        -1.94037212361922       1.65738686372359       2.08260418566577
O        -5.48924750100530       3.20125133455543       0.07906083499581
O        -4.61794842982082       1.52931429268340       1.64653966084246
O        -2.20492506323436       3.78305376688203       3.20538820671347
O        -0.81499101943255       3.58992603694147       1.17858563509631
