45
C11H24F2N2O4S2 optimized with ForceField in AMS.
N        -0.83416231680334      -0.20466480657796       0.02803044892949
C        -1.17478416741285      -1.23390859586318      -1.00236014451424
C        -1.96484174950109      -0.24899946889486       1.00542891701538
C         0.44021576872742      -0.57330301413502       0.72804096978828
C        -2.59817298277870      -1.69866668536257      -0.76053263474167
C        -2.79778913576482      -1.48105060126006       0.71217334179526
C        -0.76382347624388       1.14456638686263      -0.62245852866940
C         1.70292253812989      -0.53950307989476      -0.16702455981392
C        -0.40600826343522       2.30438646589104       0.33705765324291
C         2.91871387355492      -1.08862138168635       0.59003052619399
C        -0.49342011704856       3.64908807665989      -0.37972437593627
C         4.17658934974146      -1.04895344120577      -0.27336429774206
H        -1.07616343475426      -0.86091461669136      -2.04774267404644
H        -0.52533108034991      -2.13623540629134      -0.92850822343781
H        -1.62982216247594      -0.26653097905343       2.06798776088727
H        -2.64396825920524       0.62879951802071       0.90366611749943
H         0.34213397714778      -1.59702541331050       1.15936084182436
H         0.61467013754546       0.09565980829099       1.59951477261162
H        -3.30711276784940      -1.06262419518341      -1.33589994772916
H        -2.73975761604984      -2.76570251641542      -1.03895841702626
H        -2.40074095687028      -2.35116884383307       1.28080482889880
H        -3.87036053090554      -1.32661727836079       0.96129311444227
H        -0.02532007662827       1.13849594241436      -1.45425527582466
H        -1.74369701200725       1.37640446113958      -1.10197497524067
H         1.54794113358172      -1.14450429544689      -1.08496197242366
H         1.92683317060753       0.50431039370525      -0.47041853316061
H        -1.09367754447039       2.32626996528039       1.20786106639446
H         0.63103324341051       2.19139843512415       0.71415416126699
H         3.09417749000662      -0.48317794178554       1.50613714562327
H         2.72777245370931      -2.14080816118462       0.89407928917019
H         0.21719552952028       3.67588327150146      -1.23319985709333
H        -1.52459784987390       3.82205971687279      -0.75471173193558
H        -0.23134744724832       4.46545771561684       0.32589961106432
H         5.02377666908667      -1.49584963833995       0.28725462351772
H         4.02571376928733      -1.63316643574451      -1.20576729871446
H         4.43436841404606       0.00028290324650      -0.53204558550125
N         7.82713952540553      -0.45723776861247       0.31572597840481
S         7.41508066735090       0.46104128636039       1.60649799618766
S         9.23204686501330      -0.21097644756358      -0.48714558430203
F         6.91275096490148       1.96805223544549       1.07782378629267
F        10.50645579303940      -0.78992033633509       0.43167668304726
O         6.29552165990450      -0.19790398590262       2.36026981240321
O         8.60183110224468       0.63431908532805       2.51177987335162
O         9.43494608623754       1.25865861528360      -0.72617257291351
O         9.19724482537674      -0.93838446180902      -1.80078205508627
