44
C14H26N2O2 optimized with ADF in AMS.
N         0.53265481978494       2.54951736948883      -0.37096554781936
N        -1.50951825489303       1.88995029315645      -0.02135578432514
C         1.89614473187283       2.61478636254267      -0.91860675025774
C         2.84944041520721       1.68195266524777      -0.17804956681782
C        -2.73919941518757       1.09074760972747      -0.07336998670116
C         2.47810388211825       0.20857930018528      -0.31900570006361
C        -2.62033045695937      -0.19408584337837       0.74463814614194
C        -0.44555137741001       1.74891506006070      -0.82199872686350
C         0.10656021452036       3.16503364819877       0.78491511538436
C        -1.18209903537421       2.76419840741594       0.99289785877196
C         3.36046087366859      -0.70797820357310       0.52952372334541
C        -1.76610784394089      -1.27059722528640       0.07811406220530
C         2.83578977723754      -2.14192723121734       0.54919008521039
C        -1.48362885612477      -2.43535619167207       1.02383813063421
H         2.21819357026416       3.66427076376757      -0.83545799527411
H         1.82059124503784       2.36836243212147      -1.99038702307556
H         3.86594470090036       1.88372250127002      -0.56218841863563
H         2.80905638668509       1.94351171001573       0.89559441209091
H        -3.54269061268497       1.73723975637874       0.31025239963764
H        -2.95404963447215       0.88303573032837      -1.13404861965093
H         2.51695706931054      -0.10649011494471      -1.38166710491574
H         1.44737250090028       0.08485990486623       0.05654361923914
H        -3.64392244338084      -0.57096365853044       0.92070784101220
H        -2.16265276976554       0.05461974715438       1.71750078862890
H        -0.39042492773368       1.11940574908409      -1.69949649613304
H         0.75752432749523       3.79237389233551       1.37721818286003
H        -1.86997708409301       2.98781381242451       1.79749572164214
H         3.37263988914936      -0.31284218767965       1.56062324210631
H         4.40479838037232      -0.68540247746578       0.16532789014375
H        -2.26233505029453      -1.62385390505117      -0.84631626212043
H        -0.79477224199957      -0.82952679453364      -0.19755628246073
H         2.78474870022602      -2.56467347391599      -0.46872820496739
H         1.82193961385258      -2.16189755696252       0.98003344338309
H         3.47972591849442      -2.79913581512825       1.15483952909207
H        -0.90128160000663      -2.05825213939997       1.87873712649333
H        -0.89495447507293      -3.21771750935885       0.52052350748207
H        -2.41568997219305      -2.89325946255663       1.39554191634840
C         0.97788444364995       0.07269257015216       4.10016800406233
C         0.90040666003193       0.83294253842364       2.76668918050922
O         1.59498744116410       1.89066729536449       2.67645839829235
O         0.16502483422961       0.32283410098906       1.86371459598310
H         1.87282022988600      -0.57111787212617       4.09256467782320
H         1.08333970671241       0.76953912122727       4.94437818851418
H         0.09901971781481      -0.57285641354607       4.24125451454396
