46
C14H29NO2 optimized with ForceField in AMS.
N        -0.71190425762812       0.31681720026771      -0.15771628980449
C        -1.27796990369048      -0.44809719823130      -1.31707896049622
C        -1.84071471648036       0.72743858875442       0.74096200523651
C         0.27905988869518      -0.50113374345477       0.62713652486285
C        -0.07878027690930       1.55609906866714      -0.73057766202272
C        -2.13416426801698      -1.66126505160988      -0.91489755995750
C        -2.74086204214342      -0.44064679679598       1.19413712135299
C        -3.27390525631040      -1.23326208025713       0.00445909961361
C         1.55941595901684      -0.92488723210888      -0.13347913405786
C         0.65853913241529       2.46869939523228       0.28112846618601
C         2.48434793838035      -1.73767573441604       0.78400415290625
C         1.22687498739593       3.70451790851155      -0.41531257037817
C         3.75963280421396      -2.15797374482015       0.05789759774801
H        -0.48148156837342      -0.78686438967487      -2.01132739296080
H        -1.93210141430989       0.21668659571241      -1.92911750170626
H        -2.49365254637633       1.47325407874189       0.23245033879961
H        -1.45817374875052       1.21547931915367       1.66282112273234
H        -0.18812804044053      -1.42944237281181       1.00867648395956
H         0.58431025782234       0.04725876544356       1.54535623740217
H        -0.85470498816227       2.17917477167420      -1.23377518992870
H         0.63598615154669       1.28742779127621      -1.54023114102524
H        -1.51790355872019      -2.44804142395521      -0.43316367930449
H        -2.56849275199383      -2.11333256953521      -1.83305805899511
H        -3.60084702276952      -0.03098935022828       1.76712896339867
H        -2.19453253374294      -1.11573240425256       1.88196702009974
H        -3.99787669828925      -0.60899734228248      -0.56400416036824
H        -3.81195320498730      -2.13426166725730       0.37074435954287
H         2.11969644028869      -0.03632132766248      -0.48918237511205
H         1.30042729712380      -1.55916790168353      -1.00509872094067
H        -0.03060801217835       2.81601905842754       1.07682960287177
H         1.50776334957801       1.93472638375844       0.75314349394525
H         1.95547171027687      -2.65062234191521       1.13538948166864
H         2.76140138646113      -1.13046086492184       1.67339927735236
H         1.75976079818225       4.33797651278656       0.32502905515693
H         1.94684993681024       3.40648289678159      -1.20715711357162
H         0.41025227728888       4.30464876434865      -0.87029763623785
H         4.32471068275178      -1.26340575548409      -0.27991004031026
H         3.51296714573100      -2.79014270307473      -0.82143860401230
H         4.40417519025811      -2.74479487837844       0.74610166378566
C        -2.41336215479979      -0.53509941191505       6.01010408703012
C        -2.32878702988522      -1.88217982994493       5.36491925037363
O        -2.84271781200210      -2.85082685903441       5.90056882184753
O        -1.73124434334519      -2.02047003490179       4.31018900691375
H        -3.38205652536266      -0.42558766719376       6.54278372087178
H        -1.58376003924195      -0.42296719125991       6.73896890681077
H        -2.33564280882703       0.26629806132421       5.24443711942115
