24
C6H15NO2 optimized with ForceField in AMS.
N        -0.00820901114374      -0.00513636019341      -0.00063804526925
C        -0.90214529797965      -1.13519168732891       0.33683830746802
C         0.61741324878584       0.51466746408814       1.23564965736706
C        -0.79403147716633       1.07021938069999      -0.64555995589027
C         1.04601129169148      -0.46984215114753      -0.92941102055750
H        -0.33609488469183      -1.96002470715890       0.82524459950867
H        -1.70671110052058      -0.81290969010218       1.03549499338820
H        -1.38704793309747      -1.54732789000001      -0.57646498332904
H         1.29444793069739       1.36942102675539       1.01159396461019
H        -0.15449211595886       0.86975392145687       1.95496394268333
H         1.21846091244776      -0.27430631237012       1.74107864118390
H        -0.14405189697921       1.93291164693525      -0.91483499455748
H        -1.28048759596863       0.70496035578353      -1.57784612748808
H        -1.59344998693711       1.44279174870403       0.03371321244633
H         1.74148206033205       0.35913174767344      -1.19002465679547
H         1.64639351624858      -1.28923609767073      -0.47416467130778
H         0.60350350451912      -0.85494380197513      -1.87549270724724
C         2.06790134577383       1.97567650598924      -5.28504582815759
C         2.51528008745523       0.82293496938524      -4.44271225967607
O         2.05445836415271      -0.28989323017271      -4.63886709083309
O         3.34134164475832       0.98941999613764      -3.55997980848913
H         2.30927150282730       1.77500863049431      -6.35014623522664
H         0.97120245680640       2.11204374161080      -5.17828904646886
H         2.57817359294740       2.91186538240577      -4.97212199406220
