46
C12H14F18NP optimized with ForceField in AMS.
N         0.62829866174795      -0.11547482414572       0.03105892501283
C        -0.19807100619701       1.03433921774914      -0.43270235823259
C        -0.32351582312976      -1.12722845000447       0.56052867717708
C        -1.65006239649546       0.73800167512134      -0.09071022239107
C        -1.70464881272162      -0.76134201070921       0.05348746245373
C         1.57131445385380       0.31129856966125       1.09157317560581
C         1.40243082534092      -0.68397630666129      -1.09849894382798
H        -0.12621927543865       1.18646982248570      -1.53509144618330
H         0.10033184783635       2.00050623980538       0.03325335187226
H        -0.36063764180890      -1.11679178620961       1.67519155613975
H        -0.06608810486692      -2.16889630668843       0.25980495318585
H        -2.34429802540936       1.09720508523741      -0.88123492906117
H        -1.91253229317570       1.21608603467777       0.87925157236665
H        -2.50287763897261      -1.07674903869689       0.76018478609916
H        -1.87738229596395      -1.22938998426761      -0.94081386535287
H         2.30522684124438       1.04902851255091       0.69717558166334
H         1.02864812433577       0.78902257539766       1.93836552714974
H         2.13635445533126      -0.55988776041789       1.49242641459328
H         0.72325934367316      -1.05212681434701      -1.90019477231910
H         2.07682834786296       0.08271424544245      -1.54195980672509
H         2.02973376750061      -1.53960804042567      -0.76142648336928
P         4.23095802268696       5.28025429286038       0.79465056540262
F         4.03274076758884       4.15597446644787      -0.49810831487099
F         3.90650670136788       4.47202573336356       2.28173257536523
F         4.76923442364616       6.01010604873544      -0.66750035829435
C         5.80441024812824       4.19989134151989       1.10319274455715
C         2.31538898071642       5.11200010855333       0.57842417884702
C         4.41215898595999       7.09127600826747       1.41039487841202
C         6.92304115813309       4.31849295462562       0.04515272809077
C         1.41294118904354       5.82527428357057       1.61704444824243
C         5.82362036449354       7.70680812484393       1.42339714034651
F         5.43244096545215       2.86079279756208       1.14079268420225
F         6.35776926595025       4.49491851633878       2.33925009434728
F         1.96383827549793       3.76760230718154       0.62575649063929
F         1.96521739058500       5.60022561927162      -0.67148969960240
F         3.92644991406323       7.15771303896173       2.70401454171186
F         3.63365567600742       7.91544094298872       0.61455297633041
F         7.94005755456301       3.43781784032281       0.36873892056632
F         7.45751586832336       5.58764505527861       0.01600229684186
F         6.46332666235875       3.99274445875931      -1.21766134951674
F         0.10764793249304       5.40442085028565       1.42997459379481
F         1.76900248927220       5.51878520175184       2.91659396981039
F         1.42641111250554       7.19486153263007       1.45154930741250
F         6.70261583179311       6.94994965480937       2.16705377702756
F         5.75416750058077       8.95926104623310       2.00801220786128
F         6.30874890094237       7.87385611598151       0.13948608621786
