55
C15H20F18NP optimized with ADF in AMS.
N        -0.62329021012356       0.31597320639473       0.53814984368091
C        -1.80896897074992       1.22495921577549       0.23514677278663
C        -0.61550113996449      -0.83413691147518      -0.44463726864175
C         0.62850288491681       1.16840012379911       0.36642346274574
C        -3.13527661875890       0.49008614024803       0.22015297250737
C        -1.92618261766656      -1.60816353857456      -0.45015600852866
C        -3.11362026314202      -0.69136508526749      -0.74827372406180
C        -0.70530910216116      -0.18353071248987       1.95008169453229
C         1.93570959602833       0.52273958165590       0.79213515450935
C         3.08060100953247       1.50898091129704       0.54783012599726
H        -1.59328577590023       1.66616888460721      -0.75198329444926
H        -1.78720304029157       2.01697565208270       0.99104013530787
H         0.23705766529374      -1.47638812234859      -0.18615034224737
H        -0.43258458022128      -0.38394303882788      -1.43419781269350
H         0.44539036244893       2.07721830459062       0.95823658883998
H         0.65560581048326       1.44302422380091      -0.70062755781115
H        -3.90070425751968       1.22818717056389      -0.07061524249100
H        -3.40830485045224       0.17153990174846       1.23942556882288
H        -2.06762757118307      -2.12612272517301       0.51331515597738
H        -1.83735304124209      -2.39637427455730      -1.21575621928021
H        -4.05597568729767      -1.25738314356613      -0.69127769591752
H        -3.02689824066597      -0.31377805307280      -1.78364194180380
H         0.07396415278016      -0.93854832162129       2.10253414006128
H        -0.56509231112874       0.66852238712543       2.62316824878397
H        -1.68996780983434      -0.62503203483364       2.12328288379945
H         1.90491241628850       0.27687791039434       1.86508136393292
H         2.12400963368974      -0.40956544176078       0.23286644870531
H         3.16253511847254       1.77257356731507      -0.51792444541406
H         2.92326667277573       2.43550400307989       1.12089679532905
H         4.03855095603363       1.07326500640120       0.86444507531984
P        -1.21128004561539       3.79597227312474       4.03147288717413
F         0.25249100179309       4.57765474885898       4.11829126794015
F        -0.62393661849098       2.89115437441765       2.69466160976477
F        -1.85850737918725       4.62055842665473       5.31044703854209
C        -0.44177931774929       2.47319914247181       5.29989014389079
C        -1.73381949187246       5.29615789128217       2.83480794429888
C        -2.91112376285094       2.73791897133579       3.77450424460081
C         0.75721971166788       2.92920478878377       6.20030082029211
C        -1.13460110936911       5.35641298651063       1.39375772157988
C        -4.17927322331480       2.99390663010497       4.64611754312583
F         0.05079499087274       1.33882076513844       4.65528410717788
F        -1.40073094236325       2.04006608708154       6.18169910117576
F        -1.32187076745772       6.46244606836664       3.43593960999739
F        -3.09517736828264       5.41928044892624       2.66363793101743
F        -2.63987220580685       1.38272598385839       3.92510918025596
F        -3.34429007265653       2.86451306758163       2.46211087690741
F         0.99082658747761       1.95844871644997       7.13501020774153
F         0.49915849530408       4.07638794036373       6.85765110500046
F         1.89967663730668       3.07010682418147       5.48585901779280
F        -1.44720010362899       6.54726709056019       0.81696668397768
F         0.21167991983665       5.23255192158903       1.38042821605310
F        -1.65236343927456       4.38044905802285       0.58772276204076
F        -5.17594928018589       2.15209194108980       4.22379155662047
F        -4.63253397877940       4.25718178322570       4.52232325185979
F        -3.95755669861304       2.73699698360762       5.94997924417272
