46
C12H26F6NP optimized with ForceField in AMS.
N        -1.88629263495548       0.13164384160226      -0.05171392084930
C        -2.09678097177691      -1.08053152599367      -0.90177135195346
C        -3.00808535189943       0.10890776118368       0.93692833295005
C        -0.58059468702597       0.03475592235076       0.67885837695740
C        -3.45613580974841      -1.66497763939473      -0.56777630637928
C        -3.67878814747527      -1.24829535690926       0.85803700010602
C        -1.97366481793787       1.36143334828233      -0.90391789259782
C         0.67205771857358       0.06589849401410      -0.23033637212767
C        -1.73846979818372       2.68051464038094      -0.14540681065761
C         1.94410230323525      -0.17299855664549       0.59297056676729
C         3.19148617134927      -0.18264593205315      -0.29903884698206
C         4.46305803617450      -0.35614539166378       0.54089632912523
C         5.70878147121169      -0.38870195346828      -0.33910344235938
H        -1.34555218719265      -1.87679918338512      -0.69458708279839
H        -2.03501171710627      -0.86929508353386      -1.99403082306262
H        -3.78944669632607       0.86934742014170       0.70495979137791
H        -2.67981121596147       0.30849637551716       1.98251377126974
H        -0.55929215775908      -0.90744121611694       1.27480880173291
H        -0.48961072303708       0.85703009268931       1.42332803400208
H        -3.47368849937574      -2.77151184360774      -0.67783605102756
H        -4.23392095009278      -1.21014740506912      -1.22028017870585
H        -4.76051708126459      -1.19496979561483       1.10592876732992
H        -3.17162080122086      -1.96135108989814       1.54498434346003
H        -1.24872714454814       1.31285748904483      -1.74575182084762
H        -2.97711470627317       1.41806090651477      -1.38518381867028
H         0.60119406708967      -0.70981206011070      -1.02119527959853
H         0.76287881112883       1.05590863461922      -0.72286269774342
H        -1.99816856831630       3.53298927109098      -0.80754479968484
H        -2.36704747670377       2.74698831209084       0.76554199746869
H        -0.67232136206796       2.79283404076539       0.13856706151884
H         1.86666382654750      -1.14893119363014       1.12094654340269
H         2.04073328831089       0.63294510737676       1.35385024395434
H         3.25179118134317       0.77446521576141      -0.86264194590416
H         3.11371070683763      -1.01854854007575      -1.02875515662955
H         4.55379727845534       0.48700690900623       1.25989299599444
H         4.40572691516721      -1.30519950287248       1.11726175637818
H         5.80024962567632       0.55648115527959      -0.91553232358758
H         6.61030178764145      -0.50341949608463       0.29940373463136
H         5.66159435538682      -1.24622958008169      -1.04360310601944
P        -8.49216969288051      -0.73968110289632       1.99083173860110
F        -9.81528590120318      -0.73320887692581       3.08749171722471
F        -9.13710686736152      -2.17526219317223       1.30074620266921
F        -9.42324770026724       0.35335069023100       1.04676415051908
F        -7.35839860813574      -0.68319282323843       0.70119658621168
F        -7.71635699209887       0.54911157443395       2.82171207133003
F        -7.50361011843307      -1.73777345973492       2.98083141450345
