37
C11H24ClN optimized with DFTB in AMS.
N        -0.17921730371798       0.39534049304967      -0.16376829836354
C        -0.93288382689128       1.28811433964783       0.77681728503462
C        -1.01332400988552       0.18707551779456      -1.39826306508591
C         0.13964892057663      -0.89999982886601       0.53273370092208
C         1.07277584400043       1.10616374715240      -0.61714604267350
C        -2.32390178904758       0.76425028945676       1.12294215330399
C        -2.38512959519070      -0.39247903083792      -1.09579135740177
C        -3.15350689039885       0.51575744518265      -0.13647125188956
C         0.96341917344964      -1.90061565252788      -0.27568656293683
C         2.13221234052305       1.31886033552799       0.45873252647866
C         1.23113024877676      -3.13416172743348       0.58397321834155
C         3.30256602352292       2.09045923106509      -0.15321151119435
H        -0.33764040798606       1.39985310572734       1.68533834857175
H        -1.01757083059667       2.26317340444245       0.28887797345136
H        -1.12307530956157       1.17014871171760      -1.86401910054650
H        -0.43983348157557      -0.45034882608607      -2.08032271479518
H         0.66343177017872      -0.63833773091386       1.45608539210102
H        -0.81032141341584      -1.36063766001872       0.80961709096109
H         1.48223941845390       0.51918705160418      -1.45036687289504
H         0.74883941455068       2.07276303036490      -1.01244286424476
H        -2.25302947316572      -0.15252193273769       1.71444010277626
H        -2.81029042231270       1.52030591730696       1.74556763014983
H        -2.92286533766116      -0.46755257755978      -2.04419887722802
H        -2.30377593936557      -1.40081611346477      -0.68205138026101
H        -4.10561719481889       0.05500715117137       0.13727981703740
H        -3.36575167747176       1.47074228472568      -0.62806016401154
H         0.42491740885391      -2.19647163424851      -1.17709960916438
H         1.91216143834049      -1.46328579784641      -0.58780119616724
H         1.72856381672607       1.88354214805556       1.30524342808532
H         2.50145468231973       0.36106109764682       0.83323252023982
H         1.81862246825440      -3.85094906838665       0.01194434211063
H         0.29525951263562      -3.60981913558182       0.88140076047244
H         1.78811455228599      -2.86660712933364       1.48337914699072
H         4.07253406158112       2.25095408638946       0.60053256337981
H         2.96988710046011       3.06034660999562      -0.52486421394305
H         3.73269929281659       1.52891116367724      -0.98214842939437
Cl        1.44118963235667      -0.74618176885896      -3.22498288611180
