46
C12H19F6N3O4S2 optimized with ForceField in AMS.
N         1.90144803608357      -0.93569785307109      -0.25128621424874
N         3.14254402689660       0.90345384525205      -0.12365303990534
C        -0.37821231072986      -1.87495561349420      -0.09104451584831
C        -1.05050323871253      -0.51795389909344      -0.34442909270637
C         0.99640727187592      -1.96107807945300      -0.76726198913148
C        -2.45940461281249      -0.47231565226728       0.25575729805099
C        -3.10092479081775       0.90174424599525       0.02960041249340
C         2.38018110387974       0.13082677681449      -0.92106298802184
C         2.38025181756969      -0.83573229667098       1.00513192818475
C        -4.51226183435592       0.95548643132351       0.60547712809795
C         3.15015687311852       0.30668145010835       1.08433618132271
C         3.78922339823984       2.16101154793542      -0.47421636782795
H        -0.26582562478515      -2.04135739931068       1.00271741883882
H        -1.01989299133649      -2.68716081256476      -0.49680619036756
H        -1.11240980874539      -0.33624277774959      -1.44003289340281
H        -0.43731705993743       0.28941254812502       0.11282853036417
H         0.87397375018572      -1.84485220330285      -1.86669883106806
H         1.43850006431577      -2.96312942854063      -0.58328747558267
H        -3.08761487988876      -1.25707287364056      -0.22069873859480
H        -2.40306316880685      -0.67718020417240       1.34785373356691
H        -2.48378648817086       1.68767728872082       0.51764111896503
H        -3.14875678684082       1.11874202055869      -1.05995495753723
H         2.15693914695034       0.35290087267874      -1.95760487215964
H         2.16552304212548      -1.52882729483078       1.80732590009952
H         3.66028681071494       0.68375043037326       1.96135845922498
H        -4.48998247161065       0.76500148637520       1.69958440763807
H        -4.94651279693061       1.96211232506406       0.42879903178655
H        -5.15854033937653       0.19817604655159       0.11286124710144
H         4.88579070839337       2.07043722212836      -0.32774206520028
H         3.58709363574674       2.42060766388016      -1.53543796788930
H         3.39827614667986       2.97338763516581       0.17392201277998
N         4.55036090855258      -4.69162012907850       2.49084377585621
S         3.83284775495451      -3.89580503039826       3.73161338258691
S         4.03481295566667      -6.15628164198749       1.96315683700479
C         4.60014649008338      -4.37490293128217       5.26625173885000
C         2.98934715817253      -5.93337456378581       0.53896679566958
O         4.01801929667208      -2.41717881990618       3.54401152382591
O         2.36508530715072      -4.21662077518553       3.78412065581309
O         3.26408670982441      -6.86966553047802       3.03874824223220
O         5.22394143060295      -6.98391845438946       1.56595812235290
F         4.00010901143879      -3.70026839368103       6.31260447129462
F         5.94462950124263      -4.05752841918396       5.22874110054267
F         4.45649964018649      -5.73546269027934       5.45757557555944
F         2.58930727769259      -7.16730588958985       0.06180804139388
F         3.68732391328466      -5.26471033209909      -0.44876679898421
F         1.87530451385702      -5.19675389406383       0.89237515907913
