61
C17H24F18NP optimized with DFTB in AMS.
N         1.52547666235913       0.31805075256913       0.46712092787724
C         0.14858426943020       0.91258479694234       0.52369397000135
C         1.42874012471161      -1.16359404424353       0.71726965766455
C         2.02966197554071       0.53628850034736      -0.93800100504374
C         2.44885513827990       0.93642729877172       1.48190213050062
C        -0.57899471711906       0.61831911467053       1.83012016213183
C         0.69741658250978      -1.51431595099781       2.00595496474528
C        -0.69332196937303      -0.88926750081894       2.04800157929022
C         3.44708976399324       0.04011319774182      -1.21232414278802
C         2.70107175947052       2.42445822381723       1.31280384249648
C         3.76065804380003       0.22079473526599      -2.70306971555247
C         5.16047432049630      -0.29330975897250      -3.03212267525942
H        -0.41306468842801       0.48559666328569      -0.31229346920023
H         0.24289406503763       1.98828050053840       0.36434697308314
H         2.44402886191916      -1.55723753942499       0.75182845020936
H         0.90470033244667      -1.59436399781210      -0.14067169876172
H         1.96146459226992       1.60835297976536      -1.13926292882440
H         1.32521669140121       0.02272406731453      -1.59881201634252
H         2.02451702166990       0.74567453140647       2.46759646260251
H         3.39057457875349       0.39632911589812       1.41399128203238
H        -1.57388213391415       1.06567358130835       1.75774985029779
H        -0.06411010824501       1.08579197621541       2.67303211690157
H         1.27728733837674      -1.19706347875940       2.87356618679653
H         0.62351170395265      -2.60377160153020       2.04312510078987
H        -1.15968799797980      -1.08794396426110       3.01535347211251
H        -1.32511909515650      -1.32568040769029       1.26727342725076
H         3.54523393969805      -1.01465022770163      -0.94997594157104
H         4.17052304429549       0.60292232503101      -0.62111513383012
H         3.38888084545050       2.71728281635846       2.10616603245337
H         3.17261408290181       2.65324062211147       0.35898290029901
H         1.79072879569468       3.01383418962669       1.41387143924316
H         3.68599730270940       1.28178942652969      -2.96514916713115
H         3.02029922959054      -0.32460894948945      -3.29881626294674
H         5.24832267858551      -1.34845251817318      -2.77290965090415
H         5.91190986063343       0.26555333715524      -2.47556257084548
H         5.35520332392384      -0.17703002204972      -4.09804485930222
P         5.60655078175686      -1.94867926588628       2.47944482472798
F         6.35117617687257      -2.83835250096554       1.27736065385786
F         4.56871047403446      -1.26552671821084       1.27337220474817
F         6.57114744167427      -2.59182087636460       3.67435793184960
C         4.35686197156482      -3.44781949317803       2.69257310426178
C         6.97389055710958      -0.58694816858076       2.12549459798654
C         4.59668616125139      -0.80892227639053       3.80039108597920
C         4.78788264867648      -4.84202851018412       2.16247412427677
C         6.79739484254299       0.32805810945571       0.88578053613063
C         4.93171140236343      -0.75420620373301       5.31478227514294
F         3.16399421601094      -3.19815483176978       2.09322885112124
F         4.10297134585429      -3.59530674818709       4.00357043560288
F         8.14849642716644      -1.21349090689387       1.96010829814957
F         7.11433562149347       0.22831964810005       3.18636035295735
F         3.28184895882431      -1.14564242596670       3.73064012677546
F         4.64802228549181       0.47389214294967       3.36014714302466
F         3.93865981339095      -5.77361647555556       2.60884273776528
F         6.00599974237267      -5.17658535144676       2.56213018211739
F         4.74642000956251      -4.87226243130278       0.83138521271576
F         7.85637192824682       1.11684290383395       0.72012216985091
F         6.64004303564361      -0.38156097895660      -0.22995610806351
F         5.72490689022813       1.12613615533820       1.00882316516255
F         4.14366306829950       0.15186574800395       5.90941137250517
F         6.19127727730782      -0.40097770172555       5.53195443675333
F         4.71547871767325      -1.92403826462928       5.90278237792434
