35
C9H18F3NO3S optimized with ADF in AMS.
N         0.71967224931895       0.08865453096813      -0.50189371470281
C         0.32755462105249       0.23757249971964      -1.96355985038517
C        -0.47305622401640      -0.61941669526279       0.09220459562189
C        -1.17121010767397       0.54788551377979      -1.93570813070177
C        -1.68288948084535       0.04861220682499      -0.55684044561003
C         1.99949114744682      -0.71309858767455      -0.39018793593028
C         0.89338435553398       1.45253779514824       0.10266446520764
C         2.55315813110289      -0.84629009716710       1.01648684429005
C         3.86040012253538      -1.63873749430230       0.95734613503007
H         0.53682956324003      -0.73580189623493      -2.43016824620608
H         0.97341315309385       1.01043189893619      -2.41626181867113
H        -0.43812781155638      -0.55550363784387       1.18712313416168
H        -0.38364198268548      -1.67292468951678      -0.21407635136126
H        -1.67345925836641       0.03663997593244      -2.76926127135709
H        -1.35611327918626       1.62484577585314      -2.05972185109649
H        -2.04459552718854       0.88619077559766       0.05808888562549
H        -2.51191332551139      -0.66804464358403      -0.64796156640908
H         2.73320131910476      -0.17912895034200      -1.01610608229557
H         1.77276587156146      -1.69890592614943      -0.82756215209386
H         1.81631109209043       1.88403169535080      -0.31031626925639
H         0.03025155831468       2.07043377694760      -0.16932249073529
H         0.95352846330066       1.35042529758968       1.19222617915053
H         2.77320342443918       0.15266337505509       1.42490841902029
H         1.83421740822436      -1.34367659616646       1.69133158077637
H         4.30857180609463      -1.72610593248651       1.95791886702008
H         3.69482378833475      -2.65530406347209       0.56811384703361
H         4.58093614322358      -1.12749859074821       0.30110510684239
S         3.75749147506065       2.13094601062606      -2.51574551465879
O         4.71905089222851       3.18625272363645      -2.81425679977017
O         2.33647067155956       2.42374034512106      -2.82230964677494
O         3.93603400722080       1.43053804212753      -1.21685655472082
C         4.16969004549441       0.77703429666316      -3.75030494393617
F         5.39992972785871       0.25017815240508      -3.52381701112994
F         4.13352392718924       1.23405692752662      -5.02526846933380
F         3.26344438540541      -0.25744793145828      -3.65870821314316
