60
C18H39NO2 optimized with DFTB in AMS.
N        -0.05659361147112       0.11646949743647      -0.30974281370660
C         0.82146490171358      -1.04150007773729       0.08984893863973
C        -0.82000508146878       0.58894656816768       0.89137571752653
C        -0.97971567807127      -0.36712142597824      -1.40612955552154
C         0.76361769572321       1.26034362491296      -0.84466356712330
C         1.84012111240128      -0.74930889995655       1.18496896013930
C        -1.80597518517645       1.72591898968346       0.62617754757536
C        -2.09897151216130      -1.29746841801229      -0.94746675395803
C         1.77807289641628       0.88285261587943      -1.92238483188962
C         2.77355305834952      -1.96124079961183       1.31185839672856
C        -2.62097303943637       1.99818941436925       1.89677756460072
C        -2.77272842156428      -1.90647715500379      -2.18341571883210
C         2.38317198992776       2.15709679083309      -2.52069288388487
C         3.81918682279442      -1.74286029273521       2.40256846994443
C        -3.61199266713808       3.13975597693751       1.68034196318106
C        -3.95962522484063      -2.77896790733345      -1.78270528043464
C         3.42663518544900       1.81166213126344      -3.58153345919594
H         1.32632243526264      -1.36527235437838      -0.82445892620046
H         0.16115902137845      -1.85271250026561       0.39783329722631
H        -0.08709800058007       0.91960277656192       1.63084724352115
H        -1.34581405424020      -0.27873089312978       1.29578680106419
H        -0.34076792178561      -0.89855475697707      -2.11767138190363
H        -1.39947480113170       0.51595357348872      -1.89464155715268
H         1.27356380132962       1.72152928996621       0.00591060389218
H         0.05849955801982       1.98898350619181      -1.25276126293059
H         1.34789057430712      -0.57510535574024       2.14725312521998
H         2.43583257441876       0.13593000742593       0.94471415359141
H        -2.48780837537216       1.46902544810448      -0.18732296342694
H        -1.26987095477833       2.63591802558174       0.34345141415064
H        -2.84320583584457      -0.75955443214268      -0.35145270831545
H        -1.68955750411400      -2.11326054754852      -0.34930859665525
H         1.30342563679496       0.29792188653032      -2.71148673022014
H         2.57676053811033       0.27030154516643      -1.49940584712736
H         3.27349213927349      -2.13267319350481       0.35390602158050
H         2.18073795510447      -2.85114795714678       1.54431466651961
H        -1.94210126545744       2.25288121083932       2.71742653373271
H        -3.16484053867377       1.09116848188417       2.18014283499188
H        -2.03723237329478      -2.51766442195177      -2.71315947966149
H        -3.10989003925019      -1.10884064584761      -2.85474264114414
H         2.84890535037863       2.75296101029538      -1.72738172363583
H         1.58979595237321       2.76301856906516      -2.97226478105150
H         3.33903385242028      -1.58767606024013       3.37001672631864
H         4.43333918011845      -0.87001501458045       2.17580874405353
H         4.46865296848033      -2.61525413145875       2.47337902798264
H        -4.30761640586779       2.89433136071787       0.87707283816066
H        -3.08619585725151       4.05827147584362       1.41683581871065
H        -4.18164171658026       3.31431288868347       2.59283236710782
H        -4.71027322536883      -2.19214182086798      -1.24973916290767
H        -3.62965878404378      -3.59244295264293      -1.13584095165914
H        -4.42115884017591      -3.20808288965617      -2.67220032265008
H         2.97517196788842       1.22367755430520      -4.38088338821962
H         4.23901205253884       1.23234962414841      -3.14162989731328
H         3.84072054525284       2.72468710772488      -4.00962483610596
C         1.15501442027507      -4.26282827729294      -3.39386910209990
C         0.79298210845089      -3.06604838611555      -2.48433736658260
O        -0.00138611569820      -3.28749957825866      -1.54885823394763
O         1.31931533183833      -1.96333340087259      -2.76915153368422
H         0.34607133203133      -4.40522290940461      -4.11031455191621
H         2.07889425182644      -4.06188473566062      -3.93286736602225
H         1.25469737548963      -5.16542119455513      -2.79386077747953
