32
C10H15F3N2O2 optimized with ADF in AMS.
N        -0.25002432314456      -0.94890200052157       0.72102911257851
N         1.80814460490767      -0.26230111723419       0.84239982485511
C        -1.71350247417299      -0.94408480128728       0.79335052268415
C        -2.33732262058990      -0.40985197561452      -0.49583415918378
C         0.55258191957032       0.01023366259873       1.21111978618312
C         0.52701727872132      -1.84405512083805       0.00778811034074
C         2.97865274963646       0.60087585923899       1.10257406284677
C         1.82581306346113      -1.41775845090048       0.08444944094214
C        -1.91893649785961       1.02073057181715      -0.81825765936224
C         3.19598225856957       1.54962277647494      -0.06307367219440
H        -1.99273254105085      -0.31885515897903       1.65558876724919
H        -2.03980989157791      -1.97341777313399       1.00609013830689
H        -2.06955850866131      -1.08137170169356      -1.32981579336647
H        -3.43279152519425      -0.47400909078252      -0.37851287441936
H         0.23270596800555       0.86151859325140       1.79802114281059
H         0.09257401177639      -2.71042091965429      -0.47702416339817
H         2.78885476643615       1.11786063712676       2.05529076712465
H         3.84442426733630      -0.07793597497890       1.17669138663836
H         2.79379724075718      -1.78360233006858      -0.30305737720785
H        -0.83161813533739       1.09579121707455      -0.97454123276992
H        -2.20304605339694       1.71227192852570      -0.00808233706030
H        -2.40607960673349       1.36854376821401      -1.74063111387530
H         3.41265167093859       0.96319538150959      -0.96795793863117
H         4.08104230844044       2.16859708550282       0.14008709449363
H         2.32512216781463       2.20298044856292      -0.23125603374444
C         5.76553708341127      -1.31512639152155      -0.76448607104949
O         4.58191232940691      -1.33321867554078      -0.29684829765077
O         6.35495298217196      -2.07657015528793      -1.53680232274772
C         6.58763073286803      -0.05511955990711      -0.29881725342129
F         6.26681947438870       0.37624676169994       0.97640203363012
F         6.33063791140401       1.01948566361704      -1.12974785217691
F         7.93228665099663      -0.24507812917024      -0.30876065362439
