32
C8H18BF4N optimized with ADF in AMS.
N        -0.24174449548997       0.12899656960325       0.06159459679684
C        -1.27512098824809       0.13839187570486      -1.04435264733876
C        -0.63230300980639      -1.11390995614084       0.84628655035588
C        -2.58368434711848      -0.31295904777260      -0.38633525260448
C        -2.15382078087051      -1.07370731130931       0.89785798053528
C         1.15340048965731       0.02579863325627      -0.52876228840847
C        -0.38271708132398       1.35491918894598       0.90117645549013
C         2.28116917417381       0.08392473113123       0.48512384991907
C         3.59258715463254      -0.27127395135385      -0.21784208627512
H        -0.92211518873552      -0.59341675755597      -1.78580395019261
H        -1.30049569704890       1.13708610370519      -1.50391776348742
H        -0.11203263776254      -1.13442653536269       1.81077897525083
H        -0.27089536419834      -1.97144330961569       0.26460211393130
H        -3.14369429807118      -0.95509609155796      -1.08122284601325
H        -3.22849410605738       0.54584577820347      -0.14681632437070
H        -2.52118236250937      -0.56197248514757       1.80022597209837
H        -2.53447360744318      -2.10433244176838       0.92915541551671
H         1.22737158948913       0.84141239098355      -1.26944866786376
H         1.18006671304254      -0.94940114609413      -1.03873441788655
H        -0.07683965134922       2.22649211113248       0.30713098807695
H        -1.42892898386126       1.45897703563895       1.21145459901223
H         0.25904057435105       1.25346557797995       1.78338794347170
H         2.35455306371292       1.08940697646880       0.93485881498504
H         2.10091640262205      -0.66227754370463       1.27693940267732
H         4.43409422480316      -0.19364359795163       0.48428265034446
H         3.54430339574849      -1.30945045616526      -0.57797213115408
H         3.79380137918912       0.40015771918626      -1.06891954156821
B         1.46127412013300      -3.59190474002982       1.12645844785105
F         2.33421952418870      -4.66269802709966       1.30643342974406
F         1.64345722115072      -2.60454961738013       2.15910738436694
F         0.09618252967684      -4.00449373496190       1.12901550305320
F         1.71583553312294      -2.94364705766821      -0.14693133061393
