39
C11H14F6N2O4S2 optimized with ForceField in AMS.
N         1.10879634982990       0.00399465995316       0.52154549075254
C        -1.25458210329656       0.00428304215079      -0.14238815989985
C        -0.26858470511547      -0.01706921904826       1.02921429888819
C        -2.70680320478889      -0.00406871812293       0.34543246731286
C        -3.67618325543931       0.01919661977039      -0.83292664577127
C         1.74085877013991       1.20098269613882       0.32170971226971
C         1.73051198073476      -1.17100636910062       0.19791453028617
C         3.03296847672863       1.24077213642555      -0.20820322490411
C         3.01808126378014      -1.16528774794115      -0.34442832310471
C         3.67317677610856       0.04850946353108      -0.54150852073411
H        -1.07488983867123      -0.88600826929530      -0.78424467264960
H        -1.07425187607865       0.91795914982067      -0.75043541727529
H        -0.43578299494066      -0.92671373924326       1.64870241759775
H        -0.44976885758687       0.86087107366785       1.68924868999266
H        -2.89573465380505      -0.91779978658576       0.95002323848972
H        -2.89471247059897       0.88639436032213       0.98416584769921
H        -4.72082095004131       0.01310805326419      -0.45730440425530
H        -3.52185265527150       0.93640517823713      -1.44062604995933
H        -3.52350902601323      -0.87452250975420      -1.47502381514880
H         1.24205522242836       2.13347670460599       0.55815487950970
H         1.22693824345423      -2.11933459484708       0.34570689594360
H         3.52812472599712       2.18937363666951      -0.36956513216643
H         3.50120488453922      -2.09478934240865      -0.61537284197920
H         4.67124343885435       0.06517730982586      -0.95957601277089
N         5.94882564308945      -3.16231619003435       3.25888677510838
S         7.54962152137118      -3.47683619896829       3.41362565321400
S         4.92315839278984      -4.15196962602906       2.44962846036478
C         8.43546168472561      -2.69264011965278       2.08184527137605
C         4.06881646953306      -5.19318851665530       3.61272700636298
O         8.03667417062475      -2.91186137733332       4.71794686763739
O         7.80451391921478      -4.95848505760849       3.37995559893549
O         5.66933291555800      -5.00586868064423       1.46182321204046
O         3.90634246318774      -3.31753129213133       1.72691517988684
F         9.78896840449059      -2.93227142559890       2.22460848696452
F         8.20614325432389      -1.33015976812486       2.11350501896919
F         8.00658835517697      -3.20028000312947       0.87022929699626
F         3.21405802873467      -6.03864695777334       2.93130107054039
F         3.33731372844728      -4.40791368033683       4.48354249287739
F         4.98199428058471      -5.94339803911537       4.32863798360268
