29
C7H16BF4N optimized with ADF in AMS.
N        -0.10556199177530       0.27137903389879      -0.37791007311401
C        -0.54900903922264      -1.17017989105779      -0.17316247748053
C        -1.27269339959043       1.12791898761156       0.17209629715552
C        -2.06007635355479      -1.11782299520321      -0.29881877457894
C        -2.42106766513724       0.15993572747433       0.46625518964244
C         1.15903200477179       0.58452058774145       0.38528969127543
C         0.06388936790001       0.54791555497536      -1.84450352624689
C         2.36904541888984      -0.23176198048937      -0.02622808574917
H        -0.24574560232144      -1.45323187790681       0.84789871738498
H        -0.03716500427655      -1.80999721065819      -0.90329677929125
H        -1.53038197830875       1.86351652642056      -0.60256685545756
H        -0.90441213255174       1.64691969046686       1.06635142725254
H        -2.52436965309014      -2.01996895086895       0.12556823927496
H        -2.36957785358426      -1.02061567451951      -1.35006508413713
H        -3.36521155695742       0.59929644814073       0.11458658371217
H        -2.48970710779381      -0.04434464525682       1.54710500899908
H         1.34001973209692       1.66077457209579       0.24281201790395
H         0.91603318123011       0.41526381660867       1.44582558322251
H         0.83762793960996      -0.11643745618621      -2.24600784309921
H        -0.90452766970516       0.39465070181742      -2.34132091414878
H         0.33266405262974       1.60334333782708      -1.97032427035985
H         3.20241547796329       0.02433365041254       0.64573028739199
H         2.19186598239765      -1.31258734913772       0.06722796439364
H         2.69423577615534      -0.00836260930371      -1.05104261865885
B        -3.10457981296800       2.13375844102894      -2.61007504269343
F        -3.82731973003851       2.61889377415376      -3.69559043891995
F        -1.81629676898428       2.77349173088913      -2.51585225432460
F        -2.86326740181328       0.70915257318715      -2.76038310026078
F        -3.78755592977091       2.33275312563817      -1.37622260938828
