49
C13H21F6N3O4S2 optimized with ADF in AMS.
N        -1.49850544583135      -2.11994105340429      -0.34266485001273
N         0.59316020580337      -2.56702636622360      -0.70506903997487
C        -2.74687730366166      -1.81813842520684       0.37044890442538
C         2.02213323480812      -2.80031964443025      -0.45639545262970
C        -3.03814453151737      -0.32153348993339       0.39606577537524
C         2.83048213603572      -1.51240532909114      -0.59190574843540
C        -0.30916409523512      -2.29418853489150       0.24557684250471
C        -1.35021980777378      -2.27069620750213      -1.70489649011629
C        -0.03413197883449      -2.55293273361928      -1.93317296133221
C        -1.99715632104269       0.50419329788096       1.15006302101759
C         2.45125330898246      -0.43255475544078       0.42029174814689
C        -2.36673346928985       1.98537603037331       1.19658092367367
C         3.31470200036731       0.81900634404137       0.27917976641523
H        -3.54245820580584      -2.38387418208532      -0.13454543511049
H        -2.63247670763382      -2.24068724016112       1.38027095718154
H         2.08819309093142      -3.23277280789922       0.55374125032158
H         2.34679156758294      -3.56797401436333      -1.17390739937935
H        -4.02601123011628      -0.19495084293428       0.87326034632821
H        -3.13924821326394       0.05594602278856      -0.63814757790563
H         2.72799440397002      -1.11515355930875      -1.61871612074392
H         3.89368301798164      -1.78228917782902      -0.46378268021924
H        -0.10620251540278      -2.27450402638354       1.30988773828457
H        -2.19381162068026      -2.21306448951446      -2.38102431652420
H         0.49756010127190      -2.77707141973493      -2.84944093852282
H        -1.89321629393296       0.10867412667152       2.17686497783744
H        -1.01048180190587       0.39163917031260       0.66663503765116
H         1.39110004551216      -0.15392422194790       0.28628874647163
H         2.54425647175064      -0.84416157023804       1.44170288792141
H        -3.34042854462537       2.13225707618581       1.69007505462742
H        -2.44026766633481       2.40481395795546       0.18037398191472
H        -1.61740740054589       2.57028396862869       1.75059857675147
H         3.20025370466631       1.26652334069050      -0.72105239165152
H         4.38068852679831       0.58102338638917       0.42043153989984
H         3.03948641273318       1.58156399116989       1.02325615674271
N        -0.37132738689473      -5.58604624001209       1.18142389052194
S        -1.52719018988657      -6.69905297896211       0.92197034941308
S        -0.33666788479877      -4.65165911383166       2.47991006974624
C        -2.93161525940509      -5.74641435382380       0.08173303306670
C        -0.09177935330355      -5.72777434567330       4.04046420872641
O        -1.05478009384761      -7.56547735875178      -0.14433138341857
O        -2.14024117589695      -7.23560628438762       2.12841457071397
O        -1.55687588349734      -3.88197816352875       2.75826386878066
O         0.92205529885443      -3.88985476650654       2.40697787145511
F        -3.84767730746559      -6.62639483505979      -0.38391869881073
F        -2.46751919010856      -5.01797658213492      -0.97787761526334
F        -3.55954675627089      -4.88991560816682       0.92377087433271
F         0.59817895216908      -4.98920434551977       4.94600961979029
F         0.62304225024734      -6.83485090876518       3.75199396956309
F        -1.26679838685659      -6.07866883532059       4.58718831304838
