44
C10H20F6N2O4S2 optimized with ForceField in AMS.
N        -0.00825322419740      -0.01049941283923      -0.01051320415241
C        -0.85411903335829      -0.26380410354345       1.20800920992822
C        -0.85645382249560       0.25046763383789      -1.22581325122737
C         0.83568658407550      -1.22938844889247      -0.27048887735564
C         0.84348768998381       1.20211676518723       0.24629159807731
C        -1.91443260822721      -1.37418255161598       1.06983584035266
C        -1.91086221300450       1.36633394596098      -1.08303518676689
C         1.90261537975508      -1.08489614765415      -1.37507202448157
C         1.90610170256093       1.05160634530267       1.35133161020375
H        -0.21489371443436      -0.55872394681798       2.06799061567991
H        -1.37226014451647       0.66582518989363       1.53149171033396
H        -0.21851796169675       0.54527802190800      -2.08655312347566
H        -1.38016930240902      -0.67558308914227      -1.54982226697933
H         1.34763868314667      -1.56303813325229       0.65888223629655
H         0.19631134493484      -2.08489051549307      -0.57660626322763
H         1.35951108696321       1.52867621698195      -0.68332322771241
H         0.21094687295811       2.06370113549342       0.55073236840735
H        -2.48034357830730      -1.44859678138103       2.02257722778490
H        -2.65132653125105      -1.15589696630933       0.27251390171036
H        -1.44790791454412      -2.36317141800946       0.89212612594234
H        -2.47726140181044       1.44598597261385      -2.03506451262101
H        -2.64832840412160       1.14976271966858      -0.28582117021220
H        -1.43995565413750       2.35304775082090      -0.90370796214569
H         2.47013636329558      -2.03646891927730      -1.45057047825781
H         1.44159878410736      -0.90281578579751      -2.36582653407561
H         2.63894511722263      -0.28839103119284      -1.15144179863637
H         2.49626278684692       1.98676309294428       1.39194584568306
H         1.44271437308954       0.91161088790424       2.34835047229147
H         2.62310152310055       0.23301216923355       1.14856798260963
N         4.92676499348921       5.48040155846021       2.72504753442962
S         3.87774809268007       4.27508337503406       3.08877754992182
S         6.55233684308811       5.26847937652282       2.72435361578447
C         3.47428219924620       4.34443346488566       4.82123373951118
C         7.10260179908208       4.94472098857456       1.06112002653316
O         2.61690446152146       4.46260929154433       2.29388771093584
O         4.48395240389920       2.93595849612807       2.77223652449765
O         6.93861483229087       4.11893490427535       3.61350481705276
O         7.21281370917723       6.52520340299346       3.21461764245577
F         2.57795136707061       3.33846619937148       5.12820788318630
F         2.90494506617467       5.56890537750826       5.11321589562008
F         4.62058807712753       4.18114953907541       5.57449287335791
F         8.47264841766651       4.76488532897837       1.05310942008427
F         6.77807868693325       6.01580051556121       0.25078572906311
F         6.48910914802389       3.80457978845392       0.57892491959218
