35
C11H16F3NO3S optimized with ADF in AMS.
N         1.55858762696072      -1.40296304555823       0.01325325105594
C        -0.67165781787587      -0.29516675100308       0.12673117185707
C        -2.09307225065338      -0.29995964494350      -0.43602086629195
C         0.16724881722418      -1.40335756498251      -0.49713380214962
C        -2.96998450570762       0.79438470185137       0.17111322112508
C        -4.38879938686911       0.79352664337080      -0.39058486824795
C         1.97159580925590      -2.35860460939764       0.87030217542433
C         2.42763761908409      -0.50774798641433      -0.49834594029522
C         3.28177604644067      -2.39263310821703       1.30806644449949
C         3.74875689173812      -0.49386745309037      -0.08586720980422
C         4.18462027635664      -1.44932658266068       0.82326783401969
H        -0.70017308270442      -0.42068892827111       1.22431577315955
H        -0.20301973720674       0.68585909047074      -0.07113621078056
H        -2.55899481436681      -1.28609691971348      -0.25380710538635
H        -2.05369515363553      -0.17387526350976      -1.53377371930041
H        -0.24159775983561      -2.40227006405267      -0.29777837727323
H         0.25819553108923      -1.30469253535103      -1.58961509165734
H        -2.50067197338967       1.77836472508603      -0.01139478633122
H        -3.00574815433625       0.66409664043005       1.26815369618249
H        -4.38314577932831       0.95748370339970      -1.48007030551163
H        -4.99680438556069       1.58769969464570       0.06801040077915
H        -4.88934456720048      -0.16917146152034      -0.19898615302678
H         1.22525561545830      -3.08819782804442       1.17286112808259
H         2.02610739641702       0.18513580519347      -1.23194963073771
H         3.59348500344194      -3.18306471173219       1.98933797123772
H         4.42997304335814       0.23688673536950      -0.51900517932084
H         5.23145605757947      -1.48114473729650       1.12918395967307
S         2.21663307994354      -3.37538572923826      -2.69058354593195
O         1.68527292335937      -3.86026103590063      -1.39459390389833
O         2.29931534499613      -1.89410376102941      -2.78787013336259
O         1.72473754087950      -4.06011218563542      -3.88375164654296
C         4.02009277550213      -3.88808548448801      -2.60569529538284
F         4.13997265339997      -5.22984494220634      -2.43840352789746
F         4.65787812070848      -3.28616386412166      -1.54795034721149
F         4.69053967337696      -3.54153325863877      -3.73305440295352
