42
C10H18F6N2O4S2 optimized with ADF in AMS.
N         1.41165196347318       0.72933266632169       0.42446463919355
C         1.43265657880250       2.23746286291433       0.23474756620947
C        -0.03393742790443       0.38649522001898       0.15476689843983
C         0.12225423125338       2.72554073151898       0.85272061710829
C        -0.82990508637474       1.49738256528747       0.84014734053948
C         2.36818705565761       0.07649173746596      -0.55161302299905
C         1.77683922320893       0.39976581083317       1.84221946437591
C         2.51824541926254      -1.42661447550622      -0.39374117507233
C         3.50811608501165      -1.94906469800480      -1.43741350396208
H         1.46240642713855       2.39951173161965      -0.85322373662486
H         2.34830673213567       2.63265407785178       0.69565043165308
H        -0.24790516803976      -0.62792304065570       0.51349060779284
H        -0.15675529955038       0.41834964273042      -0.93846701425571
H        -0.27994330197048       3.56477148568730       0.26816474592123
H         0.29170777189537       3.09365878678503       1.87446389061086
H        -1.11123807074075       1.20499118316803       1.86246361653662
H        -1.76270027260647       1.68933969183378       0.29065288195922
H         3.33998309774987       0.57667458686432      -0.41585764931599
H         1.98392767753717       0.32880525202804      -1.55368219532541
H         2.84609762301450       0.60247631216080       1.96351970241549
H         1.20941570294643       1.04983880088058       2.51652078299118
H         1.54359757994085      -0.65323881901346       2.03345572435779
H         2.91330987090027      -1.66012536344957       0.60645621835163
H         1.54472149459727      -1.93641680178318      -0.50406185522700
H         3.66604942923335      -3.02932041585743      -1.30661978431529
H         3.14015687288525      -1.77928084020372      -2.46116341862013
H         4.47784300685837      -1.44064424328006      -1.32996969224231
N         4.57852455486203       2.07357063935165       1.40324424875651
S         5.89042991310085       1.32804158551139       0.83533613622276
S         4.52275823245406       2.87868315967790       2.80989035759275
C         6.10258558548201      -0.26856452776407       1.84912887671286
C         5.57500885661307       4.45241176078359       2.62883458723826
O         5.49834832079561       0.80165644305276      -0.47436536977154
O         7.14910508697410       2.03433985934154       1.00407734268231
O         5.11103882970844       2.17792271754920       3.94394290438571
O         3.14697154538218       3.37867915135177       2.89049533437624
F         4.88424182223670      -0.83496760251093       2.12150094188664
F         6.74470152114470      -0.06377101489879       3.00914539043595
F         6.81058311457022      -1.15762324148052       1.11036694050304
F         5.12598160939584       5.35664294792552       3.53442876138396
F         5.44779905101049       4.98184365552972       1.38906983584718
F         6.87185805455397       4.20623596406309       2.87617053645110
