42
C10H22F2N2O4S2 optimized with ForceField in AMS.
N        -1.44606510349517       0.37549041228323      -0.05904925871360
C        -1.72573807592027      -0.90192227030350      -0.77906914138434
C        -2.53934113109955       0.51803513738815       0.94134107784257
C        -0.13172053031443       0.32895826174299       0.65144643693801
C        -3.00323986079529      -1.50530871444640      -0.21043238886788
C        -3.68724597164645      -0.36259331581011       0.49311384577543
C        -1.50049431190270       1.52686154556124      -0.99791854480638
C         1.10125961932184       0.32208526732230      -0.28232073389135
C         2.36308453623244      -0.09213315845670       0.48394469095243
C         3.60780540317541       0.00372483530782      -0.40457663033030
C         4.85424416638529      -0.45050361822802       0.34977521082159
H        -0.90651552303954      -1.64760163987398      -0.67164497323149
H        -1.86575749403427      -0.74571752868516      -1.87388992288817
H        -2.88235126243450       1.57130110966376       1.06771239825480
H        -2.22541367313776       0.16457431017184       1.95185753316308
H        -0.09491222220628      -0.57774787788839       1.30027308989744
H        -0.03732990090378       1.20700166803182       1.33159611469444
H        -2.74701949332895      -2.29730231497707       0.52860506412082
H        -3.64742174356035      -1.93924099473809      -1.00570832436328
H        -4.33372436744971       0.19133775243998      -0.22277571735215
H        -4.29843742165903      -0.71455870592552       1.35304792177461
H        -0.80536327180252       1.38655260952557      -1.85410273372465
H        -2.52181297248639       1.64530223534753      -1.42483879582064
H        -1.23049948449958       2.47465367405427      -0.48039759784933
H         0.95199461850824      -0.37724643955652      -1.13111895023830
H         1.25285794007951       1.34336181235361      -0.69515442511819
H         2.24490099773128      -1.14001768762977       0.83957927350893
H         2.49282493965385       0.57032159080965       1.36838103577020
H         3.75065816383494       1.05518057650965      -0.73703176171247
H         3.47724988697761      -0.63362714488391      -1.30551050307294
H         5.02330217570490       0.19584529833967       1.23761038211864
H         5.74050563055835      -0.37954988554607      -0.31531591877133
H         4.74210229341169      -1.50529753565189       0.68038115764232
N         1.67747856142673      -4.08940661758835      -0.56943146973524
S         2.34541789524047      -3.75146148721511      -2.02411153993117
S         0.30996073331730      -4.97901182186054      -0.44923637446771
F         1.47315681483353      -2.52601667790555      -2.75874427196961
F         0.62286479047093      -6.54776603216538      -0.94515490151060
O         3.76779290519576      -3.30768827986334      -1.83302406452203
O         2.31052726542946      -4.96961286867239      -2.90395446621123
O        -0.75750323760402      -4.39509018464663      -1.33116899985182
O        -0.16137552806898      -4.98748329453469       0.97713218946089
