62
C16H36F2N2O4S2 optimized with ForceField in AMS.
N        -0.00472161884245       0.00212210419018      -0.00334170776015
C         0.84031921366109      -1.03010177951751       0.69629977682661
C        -0.87486077550376       0.68234514675331       1.02124740852786
C        -0.83257628742146      -0.69028480067514      -1.05427341671022
C         0.84814299718097       1.04589035266256      -0.67635989262564
C         1.89346063490171      -0.48339468099936       1.69403381432055
C        -1.94219686913927       1.66036043230637       0.46506809718848
C        -1.90060099792061      -1.68562831322183      -0.53107951635162
C         1.93632457503518       0.51380345240320      -1.64508182944289
C         2.67624510968284      -1.63689032163422       2.33511224451085
C        -2.75009870765505       2.28521211249773       1.61062392591246
C        -2.65904513695615      -2.32651196698728      -1.70117219933388
C         2.72708524707589       1.67718617678293      -2.25894364136510
C         3.72462520672470      -1.11715599360956       3.31336291321856
C        -3.79578000430091       3.26350017014169       1.08280999016846
C        -3.70551269019258      -3.32086121240120      -1.20604595679097
C         3.78984840823570       1.17392061641666      -3.23179189023649
H         1.36263265916082      -1.67452490513142      -0.04548745238191
H         0.19452661935408      -1.71911848767592       1.28151914500438
H        -0.24782859186374       1.27803767132575       1.71860118887994
H        -1.38927298992621      -0.07104003396135       1.65848867962865
H        -0.17542521274663      -1.27566616929183      -1.73227462864733
H        -1.33859194017553       0.05563279589776      -1.70676703994231
H         1.34087428676474       1.69506628868687       0.08136360677307
H         0.21100901374751       1.72854057169873      -1.27819913536655
H         1.40041774149783       0.08526053467393       2.50795654893027
H         2.61775592075593       0.18306247757651       1.18435048338681
H        -2.64942196930477       1.13749042323138      -0.20960655776364
H        -1.45887746164424       2.48442924519132      -0.09710268425599
H        -2.63810758894759      -1.17378172809071       0.11926341324163
H        -1.42220354437653      -2.50063960969233       0.04818647212822
H         1.47226057554535      -0.05555043911916      -2.47525127388817
H         2.65193436077311      -0.14848133812132      -1.11786561358904
H         3.18571520523379      -2.23126791821968       1.54584391497268
H         1.97708886387174      -2.30613669633897       2.88284075520396
H        -2.06689424765780       2.83021486796887       2.29812029974829
H        -3.26438667511504       1.48606965107752       2.18754418315207
H        -1.94397386347545      -2.86190255310475      -2.36338780973325
H        -3.16649716476414      -1.53741617593019      -2.29756479928986
H         3.22438201434233       2.26016335297598      -1.45345304551381
H         2.03503541741980       2.35405744981817      -2.80604306705714
H         3.23741648473928      -0.53949560927409       4.12757729574760
H         4.45446439578434      -0.46537351908440       2.78809745378526
H         4.27148274381814      -1.97414865869556       3.75986755935613
H        -4.51456476937666       2.73850373661539       0.41835996176708
H        -3.30584320634414       4.08498087215012       0.51770210242903
H        -4.35568374429897       3.70436202538981       1.93439840582213
H        -4.45479049691877      -2.80644494153629      -0.56753649956307
H        -3.22136126704118      -4.13294099998242      -0.62263022106568
H        -4.22901055752428      -3.77272368089250      -2.07483700676832
H         3.31705744201127       0.60210407184269      -4.05865999322019
H         4.51830643784259       0.52220373251834      -2.70418911983800
H         4.33545155511952       2.03819821539334      -3.66587719159175
N         4.31282783852561      -3.91231049209459       7.69111482689904
S         5.11824675075061      -2.57842079534932       7.19111415448979
S         4.93644243439432      -4.90428493319558       8.83307915848424
F         6.30404149334905      -3.03029903919212       6.09832332954622
F         4.86576994646491      -4.14235471131667      10.32256163003217
O         4.15879439126002      -1.63526527041030       6.52504237238394
O         5.76584479323043      -1.89504939861499       8.36260412877887
O         6.37095277915557      -5.21680150592377       8.51187645256159
O         4.14035362102319      -6.17689451380080       8.88335970568604
