46
C14H29NO2 optimized with ForceField in AMS.
N         0.98355780665684      -0.30772000640016      -0.01028225779474
C         2.04929173666369       0.07312753759650      -0.98807232797126
C         1.65501136750651      -1.23226755667219       0.95356610946588
C         0.49641131257427       0.90655043461686       0.72228368153530
C        -0.11966593883109      -1.02436985186070      -0.72905311667445
C         3.26468841949825      -0.79978140142994      -0.73621346828512
C         3.15092431223905      -1.16295505869845       0.71736636221685
C        -0.25573739760803       1.93278859910692      -0.16038094415078
C        -1.30158232542820      -1.45526947869340       0.17318781699105
C        -0.56381270372872       3.20867414613428       0.63300138604974
C        -2.29934438322024      -2.31294386251762      -0.61445413441458
C        -1.30718715741621       4.22970758423676      -0.22389245842169
C        -3.47436043791530      -2.74156452409715       0.25981434460559
H         2.38006901785021       1.12983935067605      -0.86099099202653
H         1.72796559092415      -0.02917396520982      -2.05033308682033
H         1.35503657671012      -2.29316380174845       0.79470472160136
H         1.42925885905590      -0.99735201923758       2.01918998748801
H        -0.17233768029865       0.61361492148838       1.56190904295393
H         1.36236681283483       1.42055666139881       1.20101089657987
H        -0.52036107326182      -0.39474306830755      -1.55429211684839
H         0.29285915346257      -1.93341719907941      -1.22595292220013
H         3.20764536412049      -1.71849014987628      -1.36130102432363
H         4.21452892005879      -0.26187270816455      -0.94893714374343
H         3.59699674123534      -0.35995809043709       1.34508670731831
H         3.65176431919345      -2.13138236840761       0.93679012072432
H         0.34826237822594       2.20001326206893      -1.05286554145298
H        -1.21772893175657       1.50257997984850      -0.50848996044498
H        -0.93651477475640      -2.03670017426418       1.04587468764173
H        -1.83830977084320      -0.56060946335458       0.55141570622000
H         0.38382947895990       3.66578453644096       0.99244486999333
H        -1.19105293444838       2.95613369168054       1.51586329673546
H        -2.68840301758173      -1.73206604334940      -1.47930825441951
H        -1.78992091093071      -3.22274500048170      -1.00041990473242
H        -2.26723296175787       3.80500722554747      -0.58727289397197
H        -0.68504180544754       4.52952056005799      -1.09391835412777
H        -1.52698277923567       5.13339210598432       0.38317459180614
H        -4.00869674027643      -1.85113611732031       0.65451614154743
H        -3.11715482566304      -3.36266915063211       1.10865836366362
H        -4.18637990601963      -3.34222674643019      -0.34490986337713
C         1.34370163492155      -6.51344475131125       2.44108338116546
C         1.32542505887989      -5.43813323878286       1.40042193683199
O         2.35912564878315      -5.12031419001601       0.83491938429788
O         0.27954178488041      -4.87800278154841       1.11251794871038
H         1.69052895043759      -7.46633119464667       1.98783106701325
H         2.03526198587264      -6.22799054379745       3.26197632398844
H         0.32814812667990      -6.66716717511023       2.86593408325652
