58
C18H34F3NO2 optimized with DFTB in AMS.
N        -0.24645451209987       1.74174302455355      -0.64554309392983
C        -0.89991609331401       2.43668425135393      -1.82361653519854
C         0.27171866191221       2.84462459360866       0.23916463389327
C        -1.26486491081544       0.94045219674118       0.12674260927311
C         0.87912086375700       0.88631280113769      -1.13672844499235
C        -0.96232944746317       3.92726664802223      -1.49509991148248
C        -0.66293833132454       4.01797070588877      -0.00202714289945
C        -1.81012083465731      -0.27218103500164      -0.62217828756984
C         1.63317369817428       0.15252086435959      -0.02920855964169
C        -3.03288492606795      -0.81030398198850       0.13070999930505
C         2.82319664152915      -0.60318072706168      -0.63219919901542
C        -3.59573696767979      -2.05413537769620      -0.56006085967559
C         3.58756267202898      -1.37466650157765       0.44787870840216
C        -4.83504758196206      -2.57661259635977       0.17308129741485
C         4.77816591265289      -2.13123740735183      -0.14964593146753
C        -5.40451939333933      -3.81882978736439      -0.51002376463811
C         5.54209629196862      -2.90246762824678       0.92505691417932
H        -0.30753564351279       2.24083421233844      -2.71814650895573
H        -1.89989566694695       2.02002667911368      -1.95805796738517
H         0.28937489349286       2.50483773119043       1.27412776140310
H         1.28844167687206       3.08503930429372      -0.08257477589210
H        -0.79262258933864       0.62619830025455       1.06015052522712
H        -2.08413304143291       1.62766320823116       0.36317642859435
H         0.45864208180995       0.16976469447856      -1.84562621887871
H         1.56506610590273       1.54442768920566      -1.67740829668738
H        -0.21283804786614       4.47497398491006      -2.07277539456080
H        -1.94825655944029       4.33165230628060      -1.72877276009936
H        -1.58141893767464       3.90659752070975       0.57886696116819
H        -0.18275134495254       4.95928722794831       0.26711718024775
H        -2.12202963830030       0.01242246639172      -1.62909591446040
H        -1.04990709405452      -1.05614281701195      -0.70316428384098
H         1.99540731670422       0.86386412258999       0.71787636135573
H         0.97462181910289      -0.56033755800904       0.47261806361651
H        -2.75490068076632      -1.05134090125621       1.16246682250315
H        -3.79728458811851      -0.02874794641492       0.15423825220249
H         3.49660389956330       0.10821508371764      -1.12213515128332
H         2.46096667771008      -1.30089331347065      -1.39461208353699
H        -3.86157322656807      -1.80495859813640      -1.59271622128964
H        -2.82961554034599      -2.83784646626922      -0.59163618217003
H         3.94366545861183      -0.67452250790183       1.21127215127009
H         2.91008147113749      -2.08386766637890       0.93530087547722
H        -5.59862982424101      -1.79257586899636       0.19710644639793
H        -4.57151242474877      -2.81888382361985       1.20847795541405
H         4.41872965321773      -2.82900555156612      -0.91340328487049
H         5.45299738540967      -1.41983500978369      -0.63756368771866
H        -5.69075542718167      -3.59192885865816      -1.53794024882962
H        -6.28648191281121      -4.16981094602902       0.02635233563239
H        -4.66500192401423      -4.62117151076997      -0.52525003384833
H         4.89023297906087      -3.63094057118147       1.40895653458598
H         6.38295358038171      -3.43199241141243       0.47713752563680
H         5.92551760719183      -2.22068079529889       1.68532250735540
C        -4.02620260670303       2.80944317469490      -0.58746817476829
O        -3.52595778903606       3.01235640327275       0.52098025519977
O        -3.85383726870976       1.88657334677264      -1.38641179216544
C        -4.97236458228201       3.98812291249268      -1.12060848495265
F        -5.92153713938793       3.57620979823908      -1.96922256252596
F        -4.20095694312637       4.87831793908628      -1.80201260527116
F        -5.57754306290815       4.67609402533529      -0.14498924525373
