52
C14H23F6N3O4S2 optimized with ForceField in AMS.
N         0.21925369854219       2.28924130369271      -0.21784780375381
N        -1.85889154043726       1.49640167424806      -0.18255717245370
C         1.60221269746137       2.50191922452518      -0.64260481063463
C         2.55162054778987       1.51261334589768       0.05001641005255
C        -3.06251240262940       0.76397161140384      -0.57350089573493
C         2.15002474412186       0.05426489527455      -0.21715114287040
C        -3.12332695969216      -0.60426269791180       0.12025989867958
C        -0.75482198005986       1.68909420050940      -0.92995986216358
C        -0.28929989910911       2.49310248158924       1.01452383467881
C        -1.57872409110093       2.00229268753308       1.03600260298023
C         3.15891588510794      -0.92737828407879       0.38523250088025
C        -1.99166484141289      -1.53104611428108      -0.34675172594383
C         2.70642940053420      -2.37023532613217       0.17342394616404
C        -2.07955539678234      -2.89732366447041       0.32520075523155
H         1.90652904920810       3.54244246339360      -0.39834727970784
H         1.68459608890890       2.37761993864433      -1.74494372171938
H         3.58170757457306       1.68908837228418      -0.32926937433064
H         2.55116962340170       1.70528834872352       1.14512855683854
H        -3.95846429091466       1.35983820890474      -0.29613600761153
H        -3.08364670180270       0.62246702882515      -1.67679398102772
H         2.07740824494347      -0.11709247384811      -1.31384364495056
H         1.15622466430341      -0.13791184923157       0.23907637980415
H        -4.10253779158775      -1.07554369040814      -0.11244156200467
H        -3.06687640582430      -0.46547933483507       1.22198465952429
H        -0.63675542320178       1.33382602683242      -1.94653194072574
H         0.25239424975471       2.92192518555688       1.84757420234769
H        -2.24562324172543       1.97709391249064       1.88795274400721
H         3.26007365600006      -0.73964262425873       1.47644962245661
H         4.15239243286780      -0.78460238648176      -0.09260036526681
H        -2.04556802776736      -1.66617020725277      -1.44894010343997
H        -1.00880957718288      -1.08142055077073      -0.09635446186797
H         2.60935681645020      -2.58944236653641      -0.91137008933874
H         1.72722153388694      -2.54438351351968       0.66945696181311
H         3.45430794882240      -3.06410371078687       0.61127233368181
H        -2.01345963058326      -2.78888722787175       1.42880036111931
H        -1.23710170246176      -3.53431174395013      -0.01850855198009
H        -3.03533794528474      -3.39715482787267       0.06015091998095
N        -6.01675411190857      -1.35083626868728      -5.48588915352783
S        -6.90503305916655      -0.99728333758203      -4.15430953946309
S        -6.37177546292046      -2.60361819894247      -6.48224446679379
C        -6.25550399117967      -1.89423248090364      -2.75918449644774
C        -7.28655161873252      -1.99505807594519      -7.88370878447460
O        -6.80731069750931       0.47527871707120      -3.87228771059059
O        -8.34512790422628      -1.37453440514841      -4.36531496495204
O        -7.18941371916623      -3.64134979328383      -5.76454049092706
O        -5.09297815837834      -3.22201607760182      -6.97178322166501
F        -6.91464748945709      -1.50353854210648      -1.60917030522132
F        -4.90662329170079      -1.62646459404319      -2.62794449179846
F        -6.43530115132962      -3.25055589374330      -2.95029258263672
F        -7.57939161039666      -3.04273666652209      -8.73584315990813
F        -6.52996408674222      -1.05518480741578      -8.55734110467983
F        -8.46321393350327      -1.41236994897625      -7.45368960072792
