22
C4H12BF4N optimized with ADF in AMS.
N         0.30016545558925      -0.10074476340725      -0.49079683011031
C        -0.79487627140413      -0.71524877660734       0.31735042741022
C         1.17983015694778       0.72418292385296       0.40938157507448
C        -0.29930399308737       0.77818486763184      -1.55529761437113
C         1.11319884135691      -1.19111215595115      -1.13503343111556
H        -0.34830529339316      -1.36633449417015       1.07929658425414
H        -1.37386852683749       0.08488971470853       0.79544809816991
H        -1.43958434229543      -1.30128662596418      -0.34999898580552
H         1.98936582857889       1.15873396213463      -0.19279513549273
H         0.56000765402078       1.51122440489411       0.85753392064775
H         1.58125987534208       0.06275113315757       1.18784509769966
H         0.51566513779834       1.24800957887576      -2.12301311031230
H        -0.91536876381019       0.14596780244681      -2.20794834294823
H        -0.91953076881434       1.53484679565182      -1.05823489987520
H         1.89163462882034      -0.72827315046154      -1.75669091505421
H         1.55943807121428      -1.79747751803006      -0.33659682800031
H         0.43387446895084      -1.80108079957301      -1.74466142687589
B         3.14305589383527       1.47219407102479      -2.58133539336160
F         2.26035587359608       0.68057413217910      -3.39790247319526
F         2.33825766746624       2.47776283391714      -1.93677552069715
F         4.16525349246727       2.03798837377363      -3.33113097277754
F         3.65603216005775       0.61037088431598      -1.54944456666322
