26
C8H12BF4N optimized with ADF in AMS.
N        -0.21243271929363      -0.08861413215130      -0.35049416158219
C         1.23569620690759       0.16932520739635      -0.56779564413586
C         2.06831179274872      -0.05367294254414       0.68679839802444
C         3.55195009652585       0.06714322172020       0.34616368701567
C        -1.12376983273987       0.88559139366980      -0.57118498844228
C        -0.59607866056880      -1.34536394990699      -0.04277691408092
C        -2.47421314786758       0.61828616939419      -0.47860264167385
C        -1.94118469558304      -1.65970260708949       0.06443564719422
C        -2.89242136407886      -0.67545944439050      -0.15923090236047
H         1.53711902723314      -0.53360535265027      -1.36099643166641
H         1.32280105161493       1.20371816815855      -0.93019589594993
H         1.87548329821783      -1.06804460180634       1.07133526571688
H         1.77352247771558       0.67093381713560       1.46716504616906
H         3.83044986306245      -0.70560730291403      -0.38697984465211
H         4.16921607785832      -0.07379061302146       1.24472143079655
H         3.79106897821994       1.05581555095740      -0.07706985016418
H        -0.72708935297768       1.86424979620816      -0.83282157649864
H         0.19164867076436      -2.08457765123565       0.08398492208123
H        -3.18899368095851       1.41795627974031      -0.67190915141243
H        -2.20680077940844      -2.69475561520534       0.27974948794942
H        -3.95695094618011      -0.90888647988317      -0.09985626049832
B         0.85131301070914      -3.27319365672642      -1.90459846221642
F         1.91529002124816      -2.71779608950304      -1.09365357851136
F        -0.01167454548168      -4.00484732701370      -1.03272198553234
F         1.36077021968232      -4.06061471913694      -2.92899326946154
F         0.10794693932985      -2.15197629460177      -2.43136934030820
