24
C6H15NO2 optimized with ADF in AMS.
N         0.09229610067067      -0.14184833797176      -0.32164874073217
C        -0.75017917730916      -1.03431526970063       0.52480473182940
C         0.89580061525801       0.80577506546293       0.52425892030850
C        -0.78694572351581       0.68083115394020      -1.22991159670903
C         1.05785189283175      -0.96948412920299      -1.13216061917447
H        -0.09876771017699      -1.61845104273814       1.18830151050378
H        -1.44250180882099      -0.42020847698065       1.11582499588146
H        -1.31375133224128      -1.70622912207177      -0.13583489535760
H         1.47968695932449       1.41725418901545      -0.18466269455558
H         0.20363137518742       1.42095743147853       1.11522228694993
H         1.54822053335822       0.21886254491474       1.18497509823118
H        -0.11025254750498       1.36910657649686      -1.76261026271094
H        -1.26662166029211       0.01340007491136      -1.95462881786242
H        -1.52274807109404       1.19440740848039      -0.59422698737106
H         1.69934351136637      -0.24920475903312      -1.66587532726832
H         1.60847116626098      -1.61049595347017      -0.42832186196400
H         0.49057165319273      -1.55609089840959      -1.86373641908751
C         2.29392132569257       2.08733665730840      -4.60799384564492
C         1.57722765964436       1.32304310100395      -3.48753940661692
O         0.78186190013954       0.40056454903611      -3.80921852706457
O         1.85088487146876       1.70873728125038      -2.29003795335420
H         2.12655207940146       1.60772981320505      -5.58226674030520
H         1.91219334365579       3.12040676141871      -4.64434565811770
H         3.37187320220223       2.14990997185579      -4.39538929640764
