37
C11H20F3NO2 optimized with DFTB in AMS.
N         0.27882283484615      -0.33906260151719      -0.23615986121471
C        -0.68138146889628       0.19596983451481      -1.26456915633609
C        -0.34528551921719      -1.53825445225793       0.42698334756388
C        -2.04804146186198       0.53997403798400      -0.68708486719438
C        -1.71613563657515      -1.24777836837772       1.02663981243657
C         0.61426160757378       0.68657567868148       0.80857663933604
C         1.50917196846981      -0.77981850443020      -0.99070476055646
C        -2.67270349940825      -0.68410584461002      -0.02209377068353
C         1.33752059294709       1.92101170409629       0.29028885549921
C         2.62948229683527      -1.34020538287070      -0.12982949644899
H        -0.78967305582423      -0.58387614942307      -2.02033065375535
H        -0.22069507407682       1.07015353638953      -1.72725695501148
H         0.33983135394604      -1.87904484062614       1.20521261400228
H        -0.43077442741704      -2.31105841579431      -0.33901620033762
H        -2.67473211803640       0.86812138937053      -1.52039521271303
H        -1.97801736718878       1.37077625946420       0.02190616618235
H        -1.63269028932170      -0.56105773027196       1.87486055426940
H        -2.10495727449845      -2.19596721619946       1.40697939427821
H        -0.32170836387546       0.98983314656377       1.27944510541675
H         1.22550623915322       0.18534085733358       1.56237830651937
H         1.18046172247218      -1.54308977241785      -1.69681846768221
H         1.86304230532242       0.08313911462564      -1.55829512591322
H        -3.61838624906940      -0.40935979291829       0.45030477126735
H        -2.87350432801761      -1.44643023074199      -0.77916506666766
H         1.48563426797280       2.59259012550927       1.13593252004258
H         2.31356488884539       1.67816002096333      -0.12471322473960
H         0.75229652496867       2.44645854300347      -0.46194507302534
H         3.43457543130504      -1.63295722118818      -0.80357585498522
H         3.02277576292100      -0.60634857458558       0.57205351423927
H         2.31186999835022      -2.22541444754056       0.41780522974070
C        -0.96943766992684      -4.37706229919650      -4.07943814673746
O        -2.13018231351740      -4.65571731399189      -3.97007276657563
O         0.00976031380543      -4.65747613545960      -4.71129940498594
C        -0.55755722944887      -3.10829391542035      -2.89065535460411
F         0.33173242983894      -3.49506669731450      -1.92063269842910
F        -1.62220028750177      -2.62424850591132      -2.17625557586315
F         0.01129523550616      -1.98106169573457      -3.42307958823369
