28
C8H18ClN optimized with ForceField in AMS.
N        -0.00557435309669       0.00859821343536       0.00861188555977
C         0.93494207609816      -0.79372911077502      -0.83250811166791
C         0.87446354602251       0.86902536531852       0.85893849888017
C         2.32093007586733      -0.19525536322208      -0.69175058760776
C         2.30655909899331       0.39802627952913       0.68866260551511
C        -0.81668849807008      -0.89480432727796       0.88767535674374
C        -0.86289416354337       0.85852743678347      -0.88041238375982
C        -1.76806322802648      -1.84083910340571       0.13230294047416
C        -1.88202997738011       1.74204935352884      -0.13732069677499
H         0.64395248578211      -0.83052378777378      -1.90734599728545
H         1.00607959215437      -1.85271751581898      -0.49219065209677
H         0.59652618907025       0.85363311059475       1.93813178919394
H         0.85033779808230       1.93810659012470       0.54603027882829
H         2.46577759086461       0.60845670334205      -1.44785286152702
H         3.11873576651716      -0.96122646001141      -0.79962057124154
H         2.53813649687890      -0.38900519780694       1.44046966223715
H         3.03450286118141       1.23315233558105       0.78313226162968
H        -0.13954046793639      -1.52186534436663       1.51196964208582
H        -1.42036998950342      -0.30399378724165       1.61086572317900
H        -0.22010394195965       1.52684502603046      -1.49798449299573
H        -1.42028458750623       0.23071134754594      -1.60974103942849
H        -2.22329442712944      -2.54940043211801       0.85615721260476
H        -2.59568912847498      -1.28018461865499      -0.34704735249994
H        -1.23312432270666      -2.43520800006335      -0.63592314060486
H        -2.37309734875384       2.41921263537505      -0.86780048197811
H        -2.67713121708323       1.12970525970984       0.33361520588567
H        -1.39719855879264       2.37115905967950       0.63624230941251
Cl        4.89871460975079      -3.39348309934216      -1.21785425606133
