41
C13H21F3N2O2 optimized with ADF in AMS.
N        -1.24209987790427       1.52359952466066       0.20892555607577
N        -2.73342277867985      -0.00777536281321      -0.11831894541327
C         1.16018371873494       2.07908650909156       0.31299172428138
C         1.53624159390288       0.72757379604495      -0.29141875832895
C        -0.23469793173039       2.55096503366765      -0.08540245184094
C         2.93306465125897       0.26625468569221       0.11817453519552
C         3.24950734385875      -1.16096032043318      -0.32489306778832
C        -1.96369343858246       0.90299217399793      -0.73304238682976
C        -1.56600764655525       1.01355183073902       1.45045695135837
C        -2.51220789925524       0.05284166314659       1.24637394895397
C        -3.81575622449470      -0.74472258081642      -0.78105353918957
C         4.64712168542759      -1.61070402190174       0.09319311827384
C        -5.13088944869445       0.00655215244535      -0.64157397643081
H         1.87402862306016       2.85659868110228      -0.01091547816499
H         1.24050453732312       2.02430253342545       1.41429865700022
H         1.46354731937327       0.78138296393418      -1.39352445793976
H         0.80348310811687      -0.03468115337553       0.03261608883827
H        -0.53198764197249       3.47283804067465       0.43725360774153
H        -0.30977719409533       2.73912642906898      -1.16747656646808
H         3.02789700641733       0.32898691614650       1.21919743732800
H         3.68893477437737       0.95817359137887      -0.29770114627980
H         3.14469291989034      -1.23502213471869      -1.42256961420742
H         2.49489573512502      -1.84485421633903       0.10576872541102
H        -1.95576796350705       1.21979973242510      -1.79888945269451
H        -1.09936146155734       1.36683399712257       2.36096726328574
H        -3.04107149458842      -0.58473124767403       1.94395262413976
H        -3.52453718851723      -0.84749139192947      -1.83620554850547
H        -3.84912313658210      -1.75270465993452      -0.33851643434290
H         4.76704385916847      -1.55263221467678       1.18726347907985
H         5.41918871802026      -0.96970572427484      -0.36144742405252
H         4.84714833265384      -2.64875929977445      -0.21311662737734
H        -5.43500847191577       0.06825420291976       0.41404081684162
H        -5.91996086152253      -0.51786524780563      -1.20020468223260
H        -5.01254245676880       1.02748890258330      -1.03775761905449
C        -2.69725415391974       3.33407265664926      -2.34075287444843
O        -1.84430031981407       2.61314981650915      -2.93420782908927
O        -3.57328099145960       3.01899459799357      -1.50356040812682
C        -2.57587157602247       4.86766754243521      -2.62880543815377
F        -3.78475086801856       5.49047662447441      -2.70910188466737
F        -1.89718011011393       5.15489463750504      -3.77422753589614
F        -1.88085093663714       5.47126255923332      -1.59544555438155
