50
C14H30BF4N optimized with ADF in AMS.
N        -0.18151077124160       1.34743144868834      -0.05591923963484
C         0.26274443556787       2.44219358416676       0.88649544940029
C        -0.84040498933793       2.13364224294709      -1.18275309603325
C         1.00893476176426       0.58158010332702      -0.61605242765758
C        -1.16493802198256       0.42165934146657       0.61794450105999
C         0.78106334034776       3.56087432273866      -0.01662863562598
C         0.03773701037113       3.37007733039101      -1.36505724459202
C         1.77904652152153      -0.25798029876257       0.38535820858793
C        -1.67895890146801      -0.68942276633674      -0.27944986000490
C         2.98204854844240      -0.88754623259569      -0.32787471480448
C        -2.79878185367800      -1.46935922394217       0.40691905951923
C         3.73625994175628      -1.88987447680345       0.54140045565003
C        -3.32538744285382      -2.60451951592126      -0.47017225390441
C         4.92530839847888      -2.50471422273709      -0.19331754629921
C        -4.45268535191402      -3.38352648672141       0.19894292249921
H         0.99610443559741       2.03970716353351       1.59566223816572
H        -0.63661549706718       2.75408372247550       1.43893750639534
H        -1.84554916215214       2.39187894034869      -0.81444119083448
H        -0.90137438192997       1.49566442009049      -2.07570811023436
H         1.65564818537604       1.32436828783917      -1.10035514910838
H         0.61276483881130      -0.04433482686101      -1.42244438504003
H        -1.99415929126790       1.06510147518756       0.95540387758662
H        -0.66483426862955       0.02017010625125       1.51264342032668
H         1.86968178313021       3.48534477420014      -0.15272381351062
H         0.57725576992662       4.53869716930279       0.44302893495967
H        -0.58602242656841       4.23854687379680      -1.61881162354145
H         0.73637965458861       3.20387534111675      -2.19650225101282
H         1.14277466739029      -1.06544845868221       0.78748727142723
H         2.13382403161988       0.33742693418088       1.24537071649456
H        -0.86282270701475      -1.37929855854154      -0.54584624525986
H        -2.04185470541140      -0.27683875188877      -1.23306359056184
H         3.67100487430851      -0.08566320872288      -0.65023055139056
H         2.63379544847141      -1.37442607485895      -1.25450983399688
H        -3.63239035191972      -0.78555990310849       0.65571658752852
H        -2.43745583796211      -1.88584650759720       1.36622877167507
H         3.04357111538643      -2.69196386969572       0.85661773327318
H         4.08466471348844      -1.39574561040733       1.46746303796673
H        -2.49239117903782      -3.28611000310520      -0.71822510002490
H        -3.67400032741440      -2.18635655557266      -1.43100848134952
H         5.45664488919545      -3.23092465209401       0.44000525154600
H         4.59351046179595      -3.02365635235947      -1.10627691026336
H         5.64450402972346      -1.72695582233654      -0.49666720202153
H        -4.81308552728455      -4.19693673236637      -0.44826321790425
H        -4.11503678803100      -3.83048335863118       1.14797118819428
H        -5.30811770010720      -2.72592829754190       0.42335735966390
B         0.58184391526837      -0.01884756849773      -3.90023899651664
F         1.49617658744362      -0.94891302161653      -3.32522092561102
F         0.44959345736562      -0.19801209047057      -5.27468995992015
F         1.02332200432926       1.31404016095088      -3.59162506113894
F        -0.70021269069299      -0.20391243082322      -3.24159864162194
