29
C7H16BF4N optimized with ForceField in AMS.
N         0.15697908953876       0.29012802981038      -0.07338122858587
C        -0.44752884743847      -1.01376459930489      -0.45848785029362
C        -0.93735236093165       1.06216643639442       0.58929274812243
C        -1.95362539322996      -0.85454070500642      -0.42313253595489
C        -2.17888744973388       0.18484267030244       0.64253778563175
C         1.28887122479452       0.10574118354337       0.88622383195391
C         0.61262445696314       1.02310751589945      -1.28333987644660
C         2.47119669006659      -0.70888661984745       0.33428561694493
H        -0.18670871606772      -1.81733826283378       0.26784118817662
H        -0.12124733615299      -1.36518719041911      -1.46431142387677
H        -1.19752653178844       1.99552399789034       0.03649768393324
H        -0.67873667213848       1.39044277711494       1.62240187819808
H        -2.46424396741312      -1.81081933613216      -0.17541800830819
H        -2.31765430842024      -0.47744624853132      -1.40385009961386
H        -3.10714487574652       0.76642320026338       0.45263458522320
H        -2.24763434333214      -0.30910094506200       1.63741005299998
H         1.68069745023697       1.09744669358173       1.20938519339162
H         0.92522024277566      -0.40632187420870       1.80673513554044
H         1.33899232804001       0.42727820508063      -1.87632686081367
H        -0.24273350959655       1.24482827940542      -1.95998328786110
H         1.09408276786065       1.98720360749530      -1.00374885881782
H         3.19613802787190      -0.89764454958471       1.15414845184965
H         2.14347104040375      -1.69057840071616      -0.06422482637079
H         3.00516099388458      -0.14584426898172      -0.45709694564719
B         6.60654882823266       0.34008239742820      -1.24682719189158
F         5.65212057282247      -0.59703903753644      -0.77082627044073
F         7.17475986286650      -0.13775760850548      -2.45760618127750
F         7.63023856568637       0.50623130467622      -0.27645942494564
F         5.97001693484560       1.58786557878411      -1.48231651662003
