71
C21H29F18N2P optimized with ADF in AMS.
N         2.40613620407504       1.75331503455228      -0.30084887165780
N         2.60164855856236       0.37852499208224      -1.97297352463273
C         0.62831843753166       3.08191677003915       0.82354242400756
C         1.95995439148577       2.34998863762627       0.96647761937838
C         1.40158615887163      -1.76840971257222      -2.40860961017020
C         2.49485774073775      -0.80885316102269      -2.84656302180960
C        -0.55774344578447       2.15514385374630       0.56897185103684
C        -0.01549954456018      -1.21434040017184      -2.56101002914471
C        -1.87182995416483       2.91468002055788       0.38905609911223
C        -1.06735133940512      -2.16264958693884      -1.99051715043333
C         2.09264094399624       0.52450488432744      -0.74215616241243
C         3.12482750079690       2.40556581773111      -1.28231549626104
C         3.24952867386846       1.54000159218708      -2.32791587120356
C        -3.07271017451063       1.98991046212653       0.19623014995369
C        -2.49661563235005      -1.64442770015218      -2.14038348149406
C        -4.36150290860750       2.75515745644514      -0.09060972277052
C        -3.53039537136097      -2.57541178437984      -1.51451819086618
H         0.46767873819378       3.64758543490592       1.75871011111017
H         0.71037334394619       3.82347651467081       0.01154535268349
H         1.58662830568284      -2.11196737506237      -1.37277197427275
H         1.51220828784630      -2.67277797484297      -3.03240776299133
H         2.76366943029351       3.02820299580672       1.28987535454442
H         1.89167356107328       1.53539849437591       1.70444256701519
H         3.48334521137857      -1.29556069781305      -2.84039528382650
H         2.29449326549007      -0.41614709838773      -3.85347910797941
H        -0.65332860812636       1.44126345705459       1.41042846761482
H        -0.37782925237833       1.56014277418888      -0.34263436619581
H        -0.21068634408779      -1.01609063024231      -3.62888888232727
H        -0.10620611290792      -0.23038969346298      -2.07129694417766
H        -2.04603265986019       3.56596415935329       1.26640133446551
H        -1.78257618864013       3.58127696572727      -0.48688632922695
H        -0.85721141606511      -2.34197855022917      -0.91721644242042
H        -0.98216090363332      -3.14895594440339      -2.48535838402168
H         1.51387603001799      -0.20804963117702      -0.19781131974081
H         3.45025025294431       3.43249547624588      -1.17298659655642
H         3.69305472598548       1.66210661006849      -3.30731204045192
H        -2.86474827555509       1.30265054730355      -0.64083864585802
H        -3.19826164912952       1.36043637116288       1.09735441603035
H        -2.72055634056366      -1.50015422188028      -3.21104619915874
H        -2.56957758963535      -0.64483272922657      -1.67851042161795
H        -4.60049615738309       3.45173638938231       0.72943424739228
H        -4.26399959245355       3.34277252099967      -1.01700784679006
H        -5.21570372105577       2.07274087446466      -0.21438781101780
H        -4.55043671755482      -2.18289548882118      -1.64105379569332
H        -3.34793119680057      -2.70256645096693      -0.43458858301687
H        -3.49452615664232      -3.57429271121201      -1.97928699085256
P         0.57387752082537       2.56445816169314      -5.46903141125155
F        -0.14805748777464       1.17863065623483      -6.04278163934266
F         0.24926475393079       3.43995483591730      -6.83029298032517
F         0.95380750358253       1.72809546470662      -4.04408108250807
C        -1.24948712723846       3.00233891186585      -4.84666297431123
C         2.26165521017444       1.88900493872664      -6.40330593953138
C         1.57095716986458       4.14044477860359      -4.63388830969713
C        -1.95024755829849       2.11064938124859      -3.77699651675234
C         3.24395566957969       2.78856884985988      -7.24146994566047
C         1.16696258446528       4.93046152815544      -3.33348171523107
F        -2.10249184762471       2.94762589386153      -5.92418984305865
F        -1.32796576255732       4.29133404187960      -4.35911559915781
F         1.85344039272693       0.96834945429771      -7.33862212691845
F         3.09079774724503       1.18295667712726      -5.52171335113328
F         1.80483037303922       5.11361282714633      -5.57163965009163
F         2.81364229667824       3.61793042463836      -4.28222313335384
F        -3.18654872880977       2.61826029351016      -3.50080655134355
F        -1.27244844027073       2.07270744343955      -2.59902725861791
F        -2.11707909316944       0.84250566692056      -4.20630545027278
F         4.07743171632100       1.96447488493254      -7.94589073384438
F         2.58140854860148       3.55832671898849      -8.12693003559083
F         4.03844216384765       3.58373560137391      -6.48727847162049
F         0.36789100631040       5.98169221160767      -3.58527569353734
F         2.29357747332392       5.43825508792024      -2.73252489071038
F         0.57408804696559       4.12607326647753      -2.41105381323212
