43
C13H27NO2 optimized with ADF in AMS.
N        -0.87623883173663      -0.40041561569663      -0.05733036069480
C        -0.86783255757148      -1.53869865221746      -1.09329293547486
C        -1.79239591852715      -0.92410236740512       1.03586035389176
C         0.50733362446629      -0.19099695534967       0.52195160380814
C        -2.10099100002694      -2.40647640472964      -0.79554770358740
C        -2.89102988743112      -1.65755538947044       0.29095701153503
C        -1.42636369963119       0.84883232310911      -0.70570100372176
C         1.53637205918973       0.28110852417883      -0.48703155328352
C        -1.46462797586575       2.08255198984340       0.17673686830753
C         2.94280505879799       0.08781368996807       0.08540080016585
C         4.03565370666197       0.53470811594141      -0.88315997910013
C         5.43967044121639       0.27855508809103      -0.33870558145595
H        -0.88449249557076      -1.07348910263976      -2.08781978056850
H         0.07671226708356      -2.10419099147388      -0.92780957205643
H        -1.17041115640044      -1.66036300084609       1.57753861997170
H        -2.10824929755836      -0.09351863099449       1.67854213443819
H         0.39755336865197       0.51056664322918       1.36390530089870
H         0.78014648364809      -1.18773965583622       0.90673971213201
H        -2.70131779701479      -2.60054044343884      -1.69610642792211
H        -1.74684668764801      -3.36199191242198      -0.38198774084546
H        -3.42259288989370      -2.34292477658021       0.96736245923910
H        -3.63520494171693      -0.96681210441402      -0.13942762857131
H        -2.43285136668601       0.58627831009121      -1.06349652477962
H        -0.79592995290171       1.02893005797371      -1.58826442782272
H         1.38326957502887       1.33966462795101      -0.76718206732398
H         1.45875296614125      -0.32897730984867      -1.40282122837832
H        -2.07890291762186       1.94284464044981       1.07730946317224
H        -0.45881518580197       2.40583609066614       0.47874031298052
H        -1.91576765212500       2.90249370446076      -0.40309468714652
H         3.06098492140379      -0.98683071842227       0.31221620930167
H         3.04101221434781       0.64532678525639       1.03664478438162
H         3.90661332893217      -0.00767250066134      -1.83782932491602
H         3.91201562129890       1.60991691221512      -1.11184537356081
H         6.21737290236223       0.60341712062538      -1.04697631980841
H         5.60075297468943       0.81774456871325       0.60905125391662
H         5.58803594974298      -0.79499237678877      -0.14207779089366
C         1.81579836842753      -4.91564567702044       1.22978642343185
C         1.11415980451474      -3.62527284482416       0.78684389617598
O         1.60499056488499      -3.03775247231630      -0.22831969298881
O         0.10386269486709      -3.24571863664551       1.46087937103348
H         2.88654228158203      -4.71855838889578       1.39093711070876
H         1.37126200584761      -5.32470560729280       2.14702505095648
H         1.74733115734236      -5.66332941963330       0.42417277755387
