43
C13H27NO2 optimized with ForceField in AMS.
N        -0.22597382835613       0.29710564763880      -0.16440987525211
C        -0.91246872708035       1.28285979807138       0.73419915411717
C        -1.12875253160937      -0.00312883895337      -1.32329218314407
C         0.11663083018442      -0.94326355976004       0.61642949937909
C         1.00428765245637       0.94703963658215      -0.73488052969288
C        -2.32068993735380       0.84749837474983       1.18768184138513
C        -2.52394188256254      -0.50680820026747      -0.91655353532801
C        -3.20955664065830       0.50639169768045      -0.00512199453236
C         0.90893796564835      -2.02505087827648      -0.15737842405773
C         2.12811318576646       1.27019026934946       0.28178963217286
C         1.22334025314957      -3.21564908077196       0.74500169846992
C         3.28759687005568       1.98898116638321      -0.40350648914097
H        -0.32003470539320       1.46278293943460       1.65655495233674
H        -1.01835062881505       2.26766626451646       0.22272506125967
H        -1.28485923041119       0.91765486280530      -1.93342677073028
H        -0.67096493401886      -0.73554708901621      -2.01992675992395
H         0.69159735115476      -0.67252840647018       1.52772245131736
H        -0.79660089893916      -1.43167521286333       1.00764988340022
H         1.43822672628172       0.31609106280662      -1.54242277543733
H         0.72706810871622       1.90109402585101      -1.24105629291165
H        -2.26446193310866      -0.01561295247733       1.88312432259873
H        -2.78802386392840       1.68213505442171       1.75407759843409
H        -3.13990466503725      -0.63878429887983      -1.83226484384513
H        -2.46788917341281      -1.49976314224846      -0.42478818717851
H        -4.17395309765126       0.08918619496312       0.35679117818166
H        -3.43052887656304       1.43311833569200      -0.57980991754773
H         0.32088282880026      -2.40579885191268      -1.01624628733648
H         1.87319943204519      -1.62689508682937      -0.53142398905388
H         1.75686526095452       1.92932719920095       1.09162711992887
H         2.53220810723162       0.34211579765697       0.73518760524605
H         1.79152309771063      -3.97818782787447       0.17143433003280
H         0.28415129466784      -3.67836922557005       1.11629610276688
H         1.83966721486153      -2.89202748458275       1.60956698296554
H         4.08827296096008       2.19590760939462       0.33774245218671
H         2.94409475665598       2.95481925139320      -0.83190718461432
H         3.70939391610269       1.35699552263673      -1.21391482635214
C         3.34789909029938      -1.42841153695228       4.24637479809908
C         2.03478551959261      -0.71366417283392       4.18811401757604
O         0.99544395142031      -1.33617913785144       4.33461187843599
O         1.99742240840610       0.49062688483684       3.99366658992197
H         3.46730639188809      -1.91012379557036       5.23964500713413
H         3.38409999758751      -2.20793468710945       3.45739410164206
H         4.18841374280148      -0.71931961369395       4.08774878819074
