24
C4H12F6NP optimized with ForceField in AMS.
N         0.00697268692577      -0.00523986720542       0.00067167715804
C        -0.91135851728104      -1.11415034429077       0.34299967011488
C         0.66069631611546       0.49218581092123       1.23153092131627
C        -0.75921577283448       1.09228435574722      -0.62948366238807
C         1.03719305037537      -0.49115214097745      -0.94403463231125
H        -0.35980826374567      -1.95732841297875       0.81622103286683
H        -1.69656436843721      -0.77653300825960       1.05625722317359
H        -1.42114747526381      -1.50538936345932      -0.56598616723323
H         1.35726216814373       1.32987465254056       1.00299649058187
H        -0.09304500829973       0.86377750342648       1.96153065577606
H         1.24706391727442      -0.31466472008324       1.72574203932082
H        -0.09554437470068       1.94917318563065      -0.88285967648822
H        -1.24401252053668       0.74757653230282      -1.56967484231646
H        -1.55598161420561       1.46637100226932       0.05207873214396
H         1.74103185765515       0.32547383411465      -1.22134459939042
H         1.63174455188020      -1.31842224325356      -0.49569820949452
H         0.57155547886202      -0.87330221464341      -1.88024889971615
P        -4.44934762309532       1.04858815962028      -3.59431528127445
F        -5.20907306022889      -0.08016369970508      -2.54558510109224
F        -5.39283290954995       0.47318374543534      -4.90969221994194
F        -5.67396875709599       2.21092156156474      -3.27886274945465
F        -3.64024767812034       2.14225088517483      -4.64335890458027
F        -3.58336851488708       1.69584786662954      -2.26077836007169
F        -3.21362535154962      -0.10702430642106      -3.89428486339876
