43
C11H24F6NP optimized with ADF in AMS.
N        -0.03476607414216      -0.19090114852725      -0.56636129958799
C         0.39284178294435      -0.63003125484749      -1.95912006151202
C        -0.69972347239776      -1.44653750372373      -0.02379875054225
C         1.16000860663915       0.16365700161062       0.29414286384880
C        -0.73964762834383      -1.51861161111005      -2.47151937098021
C        -1.45435175572398      -2.05420838665387      -1.20400529655511
C        -1.03107823565415       0.94264271448496      -0.68605001388979
C         1.97176256741005       1.34284934565104      -0.20934098459560
C        -1.48874038652064       1.54004120092561       0.63033414009755
C         3.20411002696393       1.57597981355529       0.67922817051226
C         4.22712945388157       0.43812990704208       0.64829257066074
C         5.49998849444077       0.78613105965995       1.41482003465192
H         0.58508707835026       0.26231055043000      -2.56865650265016
H         1.31762519965143      -1.20879690752011      -1.82432924037213
H         0.12106986645440      -2.10326442376297       0.29676652968962
H        -1.32075595180238      -1.17668210937207       0.83898227679579
H         0.77467580922482       0.34369028117427       1.30928081662972
H         1.76910171437073      -0.74848604897873       0.31990144109006
H        -1.43733069487918      -0.96195220480821      -3.11516608111363
H        -0.30717886716036      -2.33590808776144      -3.06426796994864
H        -1.38958251577482      -3.14893444762834      -1.14002176046716
H        -2.51916068907970      -1.77539679725729      -1.20031490422845
H        -1.88395819779243       0.53639925084964      -1.24770148431315
H        -0.55423858593609       1.70919513823088      -1.31235349785047
H         1.36366277153963       2.26351365826661      -0.23258757713514
H         2.31600080530968       1.14293997804220      -1.23821811223371
H        -1.92921311270595       0.79344806986988       1.30526196227831
H        -0.67555328490527       2.05646827090054       1.15807746366126
H        -2.26942149271521       2.28560306930882       0.41694080212115
H         2.87829153361858       1.75748260813897       1.72115731691626
H         3.69096172396674       2.50896066426945       0.34410564873371
H         3.79821671592970      -0.48872988902305       1.06203148526907
H         4.47648715200486       0.20168146841637      -0.40086373229543
H         6.21665611994540      -0.04750830688756       1.37966988500780
H         5.99174159931940       1.67628350663743       0.98905543812843
H         5.28199541723269       0.99694702344412       2.47436715612284
P         2.79097593360023      -3.62341460649558      -0.48733049334291
F         3.09901071276140      -2.09694828239097      -1.13430448077408
F         4.23589821595644      -3.58254682979766       0.28011214025265
F         2.07897481358139      -2.85284725468580       0.83766860650831
F         2.42042084599107      -5.07643324395790       0.16218316973315
F         1.29084954904699      -3.57776079733066      -1.24696495377291
F         3.44808678029822      -4.31622609368804      -1.81338082534848
