37
C9H17F2N3O4S2 optimized with ForceField in AMS.
N        -0.01831807757053      -1.33463081098592       0.33896053659325
N        -2.03552520467747      -0.40568264918888       0.22521013699997
C         1.33600844635583      -1.64177479308856       0.79589441521297
C         2.37941309487767      -0.85974832700068      -0.01190512657992
C         2.19082114231089       0.65792960656384       0.13033368162413
C        -0.92191714390593      -0.55708132806267       0.96661924683423
C        -0.58097501445718      -1.69071789406168      -0.83355859378328
C        -1.83275539334637      -1.11363390519685      -0.90437196566042
C        -3.19606886947879       0.41859072670160       0.55193200832365
C         3.27437455609778       1.42324560510552      -0.62121647167362
C        -3.15627102855633       1.72447186079080      -0.23309819425890
H         1.44189526190229      -1.39012405842317       1.87439060850263
H         1.52227292589953      -2.73210080980352       0.68664761392479
H         2.31165745045092      -1.14930749397805      -1.08347006400817
H         3.39030676855885      -1.14041253658228       0.35684101155216
H         1.20280617101022       0.95735756108841      -0.28155694562914
H         2.22527633982190       0.94293055580554       1.20468050014697
H        -0.75385694423449      -0.07236272667996       1.91855941089471
H        -0.11002447378895      -2.30538275165492      -1.58940088025344
H        -4.12852823385859      -0.13768858125634       0.31477438410397
H        -3.20110517572279       0.65301765858995       1.63926250462524
H        -2.53356915555382      -1.19138999778199      -1.72508491540845
H         3.24657438977588       1.16803077636083      -1.70224215656748
H         4.27645617086054       1.17758027096494      -0.20980733925067
H         3.10132637980020       2.51465588952692      -0.50995766550285
H        -2.23300696558570       2.28952742873242       0.01741060179903
H        -4.03848982960801       2.34502028332272       0.03000781875427
H        -3.17364122915982       1.51872437056654      -1.32414858910092
N         0.83481834835414       3.03652401106704       3.36372912241006
S         0.14651818923888       2.10161581860504       4.51734637501928
S         1.08260739983613       4.63665046155608       3.60292129064942
F        -1.50227600659187       2.39330258739778       4.55434597960985
F         2.36419647953963       4.84737845845804       4.66022196138289
O         0.39061456123386       0.65298088322399       4.20472977296088
O         0.73112042487384       2.43255136682340       5.86175605381731
O        -0.14773993075386       5.26186260159510       4.19817776002087
O         1.40308934355152       5.29844950739895       2.29295704601471
