44
C12H26BF4N optimized with ForceField in AMS.
N        -0.71164184013830       0.31587678473639      -0.15237426095959
C        -1.28296189007040      -0.44595002379717      -1.30999088034136
C        -1.83624375539413       0.73013255392036       0.74891090051276
C         0.27986204921624      -0.50582491478021       0.62718398584154
C        -0.07679490282085       1.55248013996848      -0.72574981952006
C        -2.13701356942454      -1.65859512181360      -0.90386012544110
C        -2.73931139107652      -0.43447843119579       1.20532575671747
C        -3.27380157838812      -1.22720044906717       0.01634385773311
C         1.55537984707278      -0.93087850801932      -0.14207702329942
C         0.65904984661090       2.46393447172510       0.28790297712503
C         2.48228897798977      -1.75010015033471       0.76554533420357
C         1.22725508092373       3.69978550371984      -0.40551008693803
C         3.75747130447536      -2.16233012609061       0.03593756797961
H        -0.48904130836808      -0.78485941184912      -2.00674044810524
H        -1.93782324178062       0.22052279590887      -1.91930527115101
H        -2.48821352951475       1.47782024094142       0.24079151002455
H        -1.44914923785971       1.21679569205335       1.66982178761530
H        -0.18836179941373      -1.43309146879315       1.00886131556069
H         0.58999490877283       0.04054710311438       1.54513162077911
H        -0.85191624225635       2.17549043085981      -1.22977147551296
H         0.63878246424625       1.28139249301722      -1.53393431359698
H        -1.52001166177177      -2.44388073230923      -0.42132867599881
H        -2.57273032760047      -2.11395967224716      -1.81931012215913
H        -3.60112583555289      -0.01941950789251       1.77147187105988
H        -2.19760256051569      -1.10801906937761       1.90143877811432
H        -3.99536586745561      -0.60042398187185      -0.55278821303613
H        -3.81533864234574      -2.12584038973309       0.38282896500462
H         2.11640386977675      -0.04216016242429      -0.49461924718413
H         1.29231321288362      -1.55947503904245      -1.01624810176397
H        -0.03092108239875       2.81096700158353       1.08247785450663
H         1.50671766759910       1.92944344393376       0.76163243072115
H         1.95582135103818      -2.66601768748876       1.11216335079098
H         2.76058387592714      -1.14808267193997       1.65582995439514
H         1.75992999144972       4.33129035921700       0.33667973095336
H         1.94712788529834       3.40295202207883      -1.19782532174384
H         0.40960543498019       4.30023743668146      -0.85819776812975
H         4.32012255736359      -1.26439204636246      -0.29745322856358
H         3.51237646191036      -2.79150690424008      -0.84608699806550
H         4.40310816827666      -2.74972751402877       0.72174469137545
B         2.81501443401213       0.87484342123949       4.51821240849499
F         2.42798466328986       2.02936479947708       3.78725190405194
F         3.45095474822636       1.26868080675130       5.72551037636406
F         3.71830109902980       0.10298963963779       3.74142323337061
F         1.66483565877734       0.09825132883364       4.81994654261470
