48
C12H26F2N2O4S2 optimized with ADF in AMS.
N         0.34055868416933       0.40922328411707       0.07459882624564
C         0.13751774415600       0.07618671407462      -1.39422687703368
C        -0.95679895507119       0.95933407330915       0.63379531727448
C         0.75586775579026      -0.80935829605561       0.88189551090228
C         1.41601148651830       1.48888065814027       0.12526301569616
C        -1.00780751382419      -0.89125271225035      -1.62104238573550
C        -2.15623821565427       0.04934465680917       0.40268314572333
C        -2.31609303776104      -0.32310313151755      -1.07096319408232
C         1.95744639759283      -1.57111409604313       0.35985560635160
C         1.83341875040045       1.96205440881106       1.50547067306573
C         2.30599545404502      -2.69622927052789       1.33935164075583
C         2.69070658989043       3.22039453891846       1.34786257342444
C         3.44645838181264      -3.56898613200622       0.82323190942751
H         1.10226816386696      -0.27522871370890      -1.78222143575384
H        -0.07551735347490       1.04226254208992      -1.88075399163104
H        -1.10678444888815       1.93018468298856       0.13411187537549
H        -0.79571162816058       1.14162753784675       1.70417808286329
H        -0.12152452353483      -1.46675071835025       0.92942189917704
H         0.94289469939512      -0.43371480601932       1.89906946909309
H         1.00900030168376       2.32367458672203      -0.46755189903448
H         2.27981426199270       1.08847393531548      -0.41748289002801
H        -0.78489794782549      -1.87228077033026      -1.16811245663511
H        -1.08079333734706      -1.06188219363246      -2.70734965191080
H        -3.04513163954746       0.58880515356189       0.76895140501214
H        -2.07577851318593      -0.86003826136129       1.02058050978675
H        -2.58703637737180       0.57931343366730      -1.64852649061978
H        -3.13961571080304      -1.04356891440507      -1.19338549097804
H         2.82998532698874      -0.91223991001411       0.24091484049148
H         1.74438598017915      -2.00816184641115      -0.62945610224136
H         0.96206490281182       2.19204222557252       2.14214344022879
H         2.43330838774191       1.18521638877910       2.00479253736602
H         1.41195889816767      -3.32105802975900       1.52752784048673
H         2.59138658940605      -2.25254571343075       2.31076856353279
H         3.05484835204316       3.56114178566692       2.32724258895901
H         3.55965016207956       3.01223625926342       0.70760074996711
H         2.10971553080389       4.03796879785632       0.89218578942553
H         4.35219950648206      -2.96873429282663       0.65769471988690
H         3.17758295716260      -4.03670846763211      -0.13720874835940
H         3.68220240068660      -4.37017358540333       1.53876181153101
N         5.61494455007142       0.85922721522169      -1.91716504951468
S         4.20997173709444       0.97897346673741      -2.66224149506157
S         5.68596029987998       0.21613175896694      -0.44798794736486
F         3.56529052429166       2.38438463299259      -2.00033425264903
F         5.53204199269440      -1.40610095631571      -0.76140205735967
O         4.42050037982800       1.32381854271251      -4.04902992422175
O         3.20367991766562      -0.02092428688031      -2.30190421552170
O         4.54377015202319       0.49648693015989       0.42218686728279
O         7.02850628933424       0.36234117528036       0.06285840820369
