24
C6H8F2N2O4S2 optimized with ForceField in AMS.
N        -0.75072042293979      -0.01560442110754       0.01007904975473
C        -0.08445526159713       1.17676518609653      -0.05306595226145
C        -0.06291159946971      -1.19772497749275       0.01025016280451
C        -2.21437514367490      -0.02452091028747       0.03261626372706
C         1.31135929211837       1.20654754533175      -0.09802600035143
C         1.33349350041058      -1.20432014528261      -0.03665970186274
C         2.02258717153112       0.00684662046727      -0.08869790330228
H        -0.63056298264903       2.11272062291204      -0.06825747089407
H        -0.59133200582994      -2.14337141636685       0.04132518617545
H        -2.59896996795531      -0.93850714340375       0.53517032641314
H        -2.60313352364490       0.85384730345154       0.59223865668842
H        -2.60022104556100       0.00728180447883      -1.00801483231284
H         1.83453520973379       2.15272480959979      -0.14252763532828
H         1.87510689507688      -2.14128183548342      -0.03594262677781
H         3.10413556572770       0.01501257194041      -0.12534071958388
N         6.10150316479768       3.65173386007738       1.96167050534922
S         4.51840062296200       3.54706754814747       1.55964268693577
S         6.75583452086987       5.05241733072274       2.49739986042903
F         4.29659151271494       4.16796747959599       0.02039004872840
F         6.14557201114962       5.40532558160013       4.01632147484524
O         4.09362150015287       2.10672968352472       1.57918590661201
O         3.68415861092555       4.33666913851696       2.52868300226603
O         6.40169392631916       6.17169883696656       1.55949510615659
O         8.24929401563161       4.91094704989429       2.57911326728916
