40
C12H26ClN optimized with DFTB in AMS.
N         0.99354809149459      -0.25522922532115       0.18712787794825
C         2.11123927617615       0.19269539760819      -0.71376416576373
C         1.66224079158476      -1.17098758183796       1.18299557124758
C         0.39482679569263       0.91605802808501       0.90930845261978
C        -0.01547500192886      -1.00914269869328      -0.62621165996678
C         3.01020236148104      -1.02400672593164      -0.84872234155757
C         2.96515122042248      -1.65547837442842       0.54403698027796
C        -0.25343358657365       1.94517844303356      -0.01053052016335
C        -1.28040983425368      -1.40833280732746       0.13271912177216
C        -0.71306287917585       3.14602042674438       0.82596341133441
C        -2.12517755436487      -2.34688617700740      -0.73803427146635
C        -1.36743255585365       4.21081091018749      -0.05101739576128
C        -3.41336762159869      -2.74836470387768      -0.02283393533308
H         2.64367569829137       0.98978388802223      -0.18586695946068
H         1.70688079353750       0.55315562163590      -1.65911794541139
H         0.98247303346217      -1.98414024671057       1.43620628424134
H         1.87978738054625      -0.58215005799487       2.07548710756469
H        -0.32962800468242       0.52437195551736       1.62658099011778
H         1.22228638824367       1.37725827389831       1.46133757930650
H        -0.28357550622149      -0.38314319614809      -1.48095038809659
H         0.48780028356573      -1.90395564973051      -1.00108797755283
H         2.63841055724294      -1.71324904746095      -1.61222592096043
H         4.02177965033686      -0.71996764320438      -1.11988531595431
H         3.80396054713303      -1.29356195414573       1.14240153247405
H         3.00635777223094      -2.74476931344734       0.49522445298551
H         0.46597224445319       2.28538070498390      -0.76006953896560
H        -1.11369774220760       1.51792402392555      -0.53555682331156
H        -1.02775685160941      -1.91494851770223       1.06780421962437
H        -1.87140411134114      -0.52246008635832       0.37817765493306
H         0.15018714669940       3.57637799096037       1.34200536518492
H        -1.42559019678678       2.80782485942817       1.58559482799412
H        -2.37033834645496      -1.84530223678270      -1.68001807968484
H        -1.54401587983591      -3.24374557768295      -0.97661985131445
H        -2.24140013996384       3.80400766326744      -0.56212703389388
H        -0.66344865944832       4.57351639998706      -0.80090543056557
H        -1.68464487197796       5.05293687060386       0.56366921180501
H        -4.01467477428472      -1.86749196160153       0.20472057375767
H        -3.18717326795207      -3.26589130869822       0.91004228491377
H        -3.99746976599372      -3.41415690832202      -0.65766520902419
Cl        3.41808818291492       1.32138589382664       1.97329252920551
