61
C17H24F18NP optimized with ForceField in AMS.
N        -0.84400541587097      -0.20280021299544       0.02869993816875
C        -1.19989395296025      -1.24543596877021      -0.98305455011361
C        -1.97030347393363      -0.22015707144102       1.01209246875472
C         0.43135374238618      -0.57165778057274       0.72569971940289
C        -2.63034059485073      -1.68278442505308      -0.73221588152222
C        -2.81769920345477      -1.44749960584984       0.73962653352772
C        -0.76325766315844       1.13590336010006      -0.64127687582988
C         1.68325819726085      -0.56787687151655      -0.18476781105217
C        -0.38119308576243       2.30135643808926       0.30241324631304
C         2.89374834397484      -1.16015708376944       0.54688687369187
C        -0.53018296948302       3.64695842480877      -0.40213924596066
C         4.12619131033420      -1.18041574033946      -0.35282468310450
H        -1.09098612568712      -0.89468780964500      -2.03486452079658
H        -0.56558056051307      -2.15707103709402      -0.88992867586178
H        -1.62996181163289      -0.22226405715915       2.07285056726269
H        -2.64040523726599       0.66347631954200       0.89970470163418
H         0.32502696828814      -1.58498834468676       1.17874343055445
H         0.62194867880854       0.11354803882188       1.58134772463331
H        -3.32962095752946      -1.03874956033856      -1.31051825530236
H        -2.79362603227857      -2.74935085401142      -1.00071375758840
H        -2.42347388500775      -2.31451231839497       1.31493632025758
H        -3.88692459721205      -1.28161463907968       0.99553516911996
H        -0.03070796724693       1.11078049777090      -1.47827323189651
H        -1.74407346319700       1.37179712252522      -1.11667470091070
H         1.49840274858622      -1.15621804417549      -1.10762658421443
H         1.93269848413197       0.47239083543075      -0.48125285444114
H        -1.02233051399526       2.30768679781957       1.20804461104119
H         0.67528890116961       2.20420016901844       0.62747607626469
H         3.11700260946719      -0.55352278483318       1.45163022600138
H         2.66875650953377      -2.20089755360511       0.86699658141087
H         0.12292222962826       3.68635378399380      -1.29991199892979
H        -1.58580843149259       3.80806027846255      -0.70816759953771
H        -0.23380345914691       4.46399445793188       0.28907118353941
H         4.98973956564456      -1.59559470322469       0.20836758012714
H         3.94250951407308      -1.81820225222667      -1.24348277908067
H         4.37801757561134      -0.15109952539279      -0.68589665397915
P         8.41022281130543       2.63636183800140       1.21200517315849
F         7.09568988108237       3.11159153765685       0.20180885719366
F         9.84757391819436       2.58038169720587       0.26303880608723
F         7.02638711377679       2.91714825674581       2.19507579213465
C         8.88848131920686       4.49309142747223       0.96308103812030
C         7.97122105061620       1.05069554059756       0.19389404884259
C         9.05137115796881       1.89143116823655       2.86307372593148
C         7.96362576447383       5.52508158173622       1.64455793031716
C         8.90447463610803      -0.17724508683465       0.34545643198560
C         9.23279924538472       2.84575241502236       4.05794028768646
F         8.87681723764863       4.78418876135276      -0.39622352317439
F        10.18052875395762       4.72312918365254       1.40888474564850
F         7.96006125481504       1.35894670751555      -1.16319184258362
F         6.69600398047500       0.63992089636242       0.54902308338096
F        10.27947312323365       1.30191567955321       2.62207774833708
F         8.17386643971816       0.90417301898648       3.28063290645402
F         8.39509007212070       6.79829149417564       1.31682300395746
F         8.00122835016652       5.40671572241777       3.01639836944679
F         6.65544014759655       5.39526171118361       1.21539356021721
F         8.56067603158274      -1.11349247393003      -0.61427040521910
F        10.23345013456589       0.14987174733248       0.15414099058119
F         8.75664725415263      -0.78357603230642       1.57583099435911
F        10.06760146538838       3.89717367514649       3.74812455167218
F         9.81485136093415       2.14433159988743       5.09923386787398
F         8.01522374180800       3.32239850049007       4.50738054250739
