35
C9H17F6N2P optimized with DFTB in AMS.
N        -0.04985231265954      -0.91523607085016      -0.37228474209672
N        -1.87976082818351       0.21713359265545      -0.27922874394746
C         1.27892532428016      -1.43146029153963      -0.05721999566919
C         2.36942812245819      -0.43821847413004      -0.47995924953769
C         2.48246081180923       0.74689301989963       0.48120887369269
C        -0.76538226345373      -0.08636401340523       0.38672851617815
C        -0.69985085359822      -1.10915728638762      -1.55928219003703
C        -1.85407134382862      -0.39499124497141      -1.50031117839468
C        -2.88093436062068       1.18667928894260       0.15473845147951
C         3.56085345202857       1.72448362863824       0.01807438675598
C        -2.49245769894085       2.58618914463458      -0.31119773910435
H         1.32138165838804      -1.62941845609530       1.01813479709319
H         1.39405681656922      -2.37450725137828      -0.59727969907512
H         2.15401124764420      -0.08059902464485      -1.48917990550994
H         3.31697015568052      -0.98456245183625      -0.50515431076888
H         1.52259765822812       1.26947611332286       0.52533681704710
H         2.71526354559354       0.38094810079463       1.48859395884090
H        -0.50784053041001       0.25150482491460       1.37492085753690
H        -0.28106205972733      -1.70828046101795      -2.34777643113561
H        -3.84176980969491       0.88530437372330      -0.27123110224750
H        -2.94450115068350       1.13884957799281       1.24598443399873
H        -2.63234950770302      -0.25379627954962      -2.22864965714386
H         3.32452865471428       2.09910182547376      -0.97711649589614
H         4.53615898356958       1.23641335258038      -0.01106553750718
H         3.61314296145707       2.56927444217632       0.70504479156082
H        -1.52285744773576       2.86440678710480       0.09766952047059
H        -3.24544471538974       3.29570343940730       0.02917271524139
H        -2.43142052382040       2.61890034533292      -1.39726760455052
P         0.32430606609544       2.08848786483544      -2.93424924457587
F         1.90335882914513       2.47638899027726      -2.73836282277774
F         0.20494931303126       1.82087920489467      -1.27530619317114
F        -0.13119953802498       3.63879531308147      -2.69686837665680
F        -1.28037566572708       1.64018777051923      -3.07492256381924
F         0.41906355616493       2.30413653173713      -4.54161464728620
F         0.74719018624439       0.48091294126693      -3.11173718828710
