46
C14H26F3NO2 optimized with ForceField in AMS.
N        -0.71203971487598       0.31376170293502      -0.15680204882514
C        -1.28085018038372      -0.45133021834024      -1.31388873668277
C        -1.83811162137623       0.72786829019197       0.74383312433683
C         0.27924697036795      -0.50503634141351       0.62597495238287
C        -0.07853518276900       1.55101552914336      -0.73223143818649
C        -2.13643595848250      -1.66314728394344      -0.90810376559532
C        -2.74012777878835      -0.43726540630026       1.20120473972498
C        -3.27427548383604      -1.23309851540491       0.01315511318762
C         1.55856883138971      -0.92802138103619      -0.13787230402709
C         0.66466721955322       2.45923106536086       0.27836528144171
C         2.48763048636486      -1.73781632807167       0.77712129535111
C         1.22232707038789       3.70262224164151      -0.41216205596822
C         3.76144363230081      -2.15806102103230       0.04789753258009
H        -0.48550535684079      -0.79202002160101      -2.00884525847285
H        -1.93531705020856       0.21350364836625      -1.92532434493383
H        -2.49078798975984       1.47446331416878       0.23515841907893
H        -1.45284006557362       1.21547754958845       1.66506766303142
H        -0.18899994440682      -1.43264355337682       1.00855196831118
H         0.58635430556448       0.04360785801666       1.54334891956238
H        -0.85592981754669       2.17538489794880      -1.23177401043004
H         0.63287395649951       1.28110601456638      -1.54456359393744
H        -1.51911533067716      -2.44882578176544      -0.42620905441640
H        -2.57175400481264      -2.11684680460460      -1.82496504195558
H        -3.60121439986581      -0.02102312018259       1.76792065828110
H        -2.19799242205004      -1.10968464653809       1.89819037933941
H        -3.99935057854135      -0.61003175507905      -0.55569565772840
H        -3.81245360136454      -2.13326528010010       0.38157177911879
H         2.11688786536276      -0.03890781311577      -0.49469755967327
H         1.29853323152816      -1.56218747949096      -1.00924613528796
H        -0.01857744980558       2.79524822883070       1.08247599679165
H         1.51941602651789       1.92484934042463       0.73961755264513
H         1.96069357699514      -2.65050521005309       1.13198591220073
H         2.76691125375112      -1.12714706267274       1.66347144920835
H         1.75296008900232       4.33451461512808       0.33131626350810
H         1.94195575226237       3.41388878180180      -1.20784662523312
H         0.40047687275647       4.30067363114810      -0.86050937203792
H         4.32624605060624      -1.26343276990427      -0.29073672109789
H         3.51331748819630      -2.79014446880187      -0.83126088719474
H         4.40686646148186      -2.74513392764627       0.73515430303014
C        -1.64780094834432       5.70087039270914       2.74297257205713
O        -0.92999171436920       5.19597853047280       1.89483939224875
O        -1.61497227082434       6.90823927811027       2.91866069557493
C        -2.56567557569953       4.84960067422968       3.56997299267810
F        -2.21684154327284       4.95628421337679       4.90333418827224
F        -2.47949204531401       3.52238652080801       3.18654144900578
F        -3.86898223809954       5.28080402190711       3.40637461443506
