41
C11H24BF4N optimized with ForceField in AMS.
N        -1.37517088326447       0.17854247805058      -0.07436027331058
C        -1.64509040942042      -1.01601693450116      -0.93279401740777
C        -2.48091526642883       0.19032450631117       0.93203948575557
C        -0.06173083776275       0.02260898311936       0.63228784700035
C        -3.01372053250259      -1.56515404953460      -0.57340445038942
C        -3.21041625157871      -1.13636462430686       0.85294777830652
C        -1.42720162481940       1.41984986257171      -0.91257328336527
C         1.17700972626779       0.02944868479464      -0.29751640784668
C        -1.15258415821007       2.72364808083564      -0.14027008910306
C         2.44126804654968      -0.35531480848735       0.48209440584636
C         3.68345422337121      -0.32467572365775      -0.41525584457762
C         4.93372193641533      -0.72379250314194       0.36316243503545
H        -1.60651737330194      -0.79127447111193      -2.02343295789605
H        -0.91262329229258      -1.83674839230825      -0.75453892891489
H        -2.12623300608469       0.36409512015459       1.97356532927428
H        -3.23424701678827       0.98360866155272       0.71843491042317
H         0.07140978689881       0.82706826396842       1.38922223959876
H        -0.06568299550386      -0.93023335021096       1.21102760372350
H        -3.79065840994771      -1.09944028108418      -1.21931111742653
H        -3.05833795224950      -2.67184348471256      -0.67543151297994
H        -2.73571816071570      -1.87156163716307       1.53987780444534
H        -4.28910029439162      -1.03298738664910       1.10321598426734
H        -2.43027820967173       1.51176126503899      -1.38898991561709
H        -0.70405975170946       1.35871353089836      -1.75489018928468
H         1.32531026878833       1.04388605805520      -0.72271876482883
H         1.04322232582632      -0.68226970502313      -1.13877602944054
H        -1.80359096571495       2.81787802685445       0.75218357686367
H        -0.09146544198184       2.78753375249291       0.17364597930635
H        -1.35530084452801       3.58946034490700      -0.80504851438722
H         2.31716903871111      -1.37889238679236       0.89927094872077
H         2.58228844812751       0.35589651802954       1.32582445307500
H         3.55018381188112      -1.02655578362152      -1.26743996803845
H         3.82822190850572       0.70028516848758      -0.81953278800011
H         5.81685361488444      -0.69492921754451      -0.30876733890099
H         5.10483845047333      -0.01873464136584       1.20435812971179
H         4.82636388238500      -1.75411794691969       0.76444680100685
B         3.65791634015092       3.03052708219283      -3.65864784626252
F         4.96439340919173       3.22892057124217      -3.13752800229005
F         3.09571634670920       1.85446087766567      -3.09611463587167
F         3.72738775381337       2.89169826940170      -5.07038582351917
F         2.84324339711821       4.14706765831154      -3.33195378020195
