40
C12H25NO2 optimized with ForceField in AMS.
N        -0.51224082363923       0.00307576705330      -0.00116145994925
C        -1.43114162411757      -0.56435434383697      -1.03566863834981
C        -1.41378486793745       0.59462447572364       1.03497470693554
C        -2.83802736495981      -0.08004065099814      -0.74142147488921
C        -2.83356336195601       0.14705246045194       0.74384376124185
C         0.33526635426451       1.07390633009792      -0.62013305582828
C         0.30792181581837      -1.08985320597629       0.61617637660748
C         1.35195762756347       1.72590754967554       0.34772646124436
C         1.30674623600300      -1.76658617537679      -0.35327327213178
C         2.05814020018038       2.90565654769186      -0.31412779687075
C         1.97724344005141      -2.96986848187079       0.30336716448446
H        -1.14738867754174      -0.28561800478318      -2.07651508877323
H        -1.46203396073849      -1.67808975422219      -1.00532630706870
H        -1.13463702914081       0.30955630462688       2.07538801888707
H        -1.41618950150320       1.70878114990551       1.00367328729324
H        -3.02489319157807       0.88029625158325      -1.27005079813071
H        -3.60706474949106      -0.82636433699851      -1.03855223152893
H        -3.04601853411732      -0.80764259349491       1.27421120293137
H        -3.58142006804433       0.91450996995548       1.04120287194528
H         0.89309025345448       0.67330840330384      -1.49539697398304
H        -0.32275547072422       1.87442774651594      -1.03193681015708
H         0.87671600054518      -0.70479024585063       1.49136721253037
H        -0.37011415146916      -1.87348048917177       1.02797471267957
H         0.84903253664071       2.08977099044977       1.26746178072560
H         2.12967254340247       0.99333943489772       0.64576096616197
H         2.10580702520874      -1.05516430317438      -0.64619647595092
H         0.79502545147586      -2.11077919164280      -1.27569831954181
H         2.61818564522963       2.56389374801863      -1.21070320193965
H         1.32027023182608       3.67983713182088      -0.61390734193850
H         2.77651637752944       3.35894211853440       0.40155251541557
H         2.54496054401993      -2.64952111738251       1.20300816426054
H         1.21673463786599      -3.72420756496632       0.59712892802063
H         2.68381340735160      -3.43961005258068      -0.41346815406178
C        -6.48202505234993       1.29141724709586      -2.83290684134949
C        -5.16620512227158       1.91196071700683      -3.18091652477615
O        -4.48964164793364       1.44035315585788      -4.08060900151087
O        -4.76482426713753       2.88836313757567      -2.56854041539731
H        -7.15597525424571       1.32613331461959      -3.71508068619536
H        -6.32771023288755       0.23342537791964      -2.53251272008953
H        -6.96358044894686       1.83626734804492      -1.99230562095274
