41
C13H24N2O2 optimized with ForceField in AMS.
N        -1.27861431414475       1.30976389983577      -0.23786498049786
N        -2.68327682286449      -0.37734457271182       0.11785109445946
C         1.11088910734497       1.93737297488182      -0.20945024632244
C         1.59929802571191       0.49069720991974      -0.37339000234850
C        -0.26034096095274       2.15229811748317      -0.86318184886385
C         3.00684415919736       0.30681012503706       0.20392838274824
C         3.46556891086409      -1.14975377955609       0.06218107942526
C        -1.81712925912768       0.18446823498972      -0.74738155130312
C        -1.82065508741604       1.46388928070039       0.98715703577904
C        -2.69306112502881       0.41694873143510       1.20766964093364
C        -3.39238388428540      -1.64300414550484      -0.05189777556710
C         4.86314994542894      -1.35081510117403       0.63959947816583
C        -4.86467241708223      -1.39123555603387      -0.34966042184309
H         1.83848870533682       2.62739585472917      -0.68949125115633
H         1.05253417076468       2.19501707745108       0.87037419242370
H         1.60766954205952       0.22402718411372      -1.45328280784857
H         0.90229656179812      -0.19615760387617       0.15449417540565
H        -0.55557930454228       3.21939556638421      -0.76558910626364
H        -0.19127645342661       1.92319361767972      -1.94954685863366
H         3.00399075102917       0.58973506752768       1.27977223259380
H         3.71659102034711       0.97190267542577      -0.33573706842538
H         3.47599871939769      -1.43647920855243      -1.01205317667310
H         2.75732526774520      -1.81949474748800       0.59734189145191
H        -1.56286226073516      -0.23107523111222      -1.71453772800712
H        -1.58677717712869       2.26570805945503       1.67505879278094
H        -3.26996039860274       0.23506958044200       2.10521646706567
H        -2.94728050138687      -2.21860287043931      -0.89293307237719
H        -3.29319058218459      -2.25385653023255       0.87152486447447
H         4.87374586843159      -1.09866415722378       1.72131786126590
H         5.59760287464890      -0.71158906735988       0.10508063708717
H         5.16389848530093      -2.41315189199543       0.52002659194320
H        -5.33856072696918      -0.83845914923734       0.48861844348167
H        -5.38861119622689      -2.36116858585893      -0.48246091325560
H        -4.96587614365016      -0.79827115141650      -1.28343107994458
C         1.47161577542418       5.88332126928094       0.46994432046340
C         0.24420835293395       5.75236235700779       1.31481622545439
O        -0.50567235199214       6.70523391076348       1.45163305563585
O        -0.01165518826493       4.69600712947827       1.87003525841612
H         1.18059991931171       6.11198396269421      -0.57675881651506
H         2.10713910420869       6.70604267630848       0.86012267051795
H         2.05942203072686       4.94093747264883       0.48232547817293
