39
C11H19F3N2O3S optimized with ForceField in AMS.
N         0.36562725248352      -1.61679831266196       0.31667005573798
N        -1.76223233496166      -0.96988051819091       0.26812983484883
C         1.76589335511172      -1.72164429559763       0.72386275524762
C         2.64483383379490      -0.73492217454104      -0.05546892622597
C        -2.99785570560219      -0.26764432591131       0.61319033047015
C        -0.61729834687243      -0.97528546767885       0.97825900342442
C         2.23385689147890       0.72322682650650       0.19320835378696
C        -0.17735505969426      -2.03925327800944      -0.84313829495190
C        -1.49851770712690      -1.64069452021068      -0.87192167916712
C        -3.20677708723415       0.96100726694645      -0.28280296449937
C         3.18081695032314       1.69435780325532      -0.50430608272000
C        -2.05409791902936       1.95875101087275      -0.17105863468637
H         1.86215240356720      -1.51890553486683       1.81320764367433
H         2.12534218697598      -2.75804753541612       0.54440534261832
H         2.58977573457284      -0.96294680243439      -1.14233008285042
H         3.69515874839154      -0.87671544261912       0.27406932520967
H        -2.96814767056548       0.05644446070688       1.67690245642885
H        -3.85911208402922      -0.96041672164263       0.49785059565064
H        -0.48413010587416      -0.46731645299884       1.92542579517478
H         1.20895017349798       0.89530924621241      -0.19626332021378
H         2.23781181579878       0.93571675487230       1.28448632219769
H         0.35375092382867      -2.56978263803271      -1.62268900127469
H        -2.20266310767202      -1.79924349564445      -1.67830111674856
H        -3.31684963172127       0.64241520544066      -1.34173031591505
H        -4.14759211025226       1.46882257551122       0.02120003360775
H         3.18512140556739       1.50932624580073      -1.59960567197981
H         4.21124253529883       1.58182524730010      -0.10727102242428
H         2.84323866450810       2.73646882661248      -0.32119525876007
H        -1.11793753061566       1.51270591761063      -0.56588564191022
H        -1.90103463520474       2.25839239554923       0.88757889639579
H        -2.28439886693537       2.86461389923494      -0.76996361509484
S         7.04358257016962      -1.35516649823864       0.09876230135859
O         6.23641469871599      -0.15536346220754       0.61395139568875
O         8.10739989528570      -1.54958879133730       1.18875029193538
O         7.84683551757130      -0.75919424877847      -1.06627186328115
C         6.07547257963774      -2.83678974656074      -0.30753857746202
F         5.18197882974945      -2.54306217550014      -1.31970215908482
F         5.38246498303521      -3.25699430638099       0.81167894066712
F         6.92722216102662      -3.84139331227189      -0.72522672487318
