49
C13H28F6NP optimized with ADF in AMS.
N        -1.45631192055442       0.05534391544792      -0.14677854899558
C        -2.45843515666360       0.34681197066022      -1.25719292996906
C        -1.63759597913311      -1.39480177367849       0.29058588582992
C        -0.07299342500847       0.22220582711052      -0.76397449304039
C        -1.64244545797441       0.96730484951678       1.04520038837700
C        -3.89516478090693       0.06832287367948      -0.85130708583786
C        -3.06723597508246      -1.72490767098965       0.69436225805670
C        -4.06453585341491      -1.38633451031010      -0.41249424361970
C         1.10418784775235      -0.01215362028947       0.16641430755567
C        -1.42987391962198       2.44222716376635       0.76454776394758
C         2.39675722484995      -0.06566147028255      -0.65839124930408
C         3.63528214487350      -0.29799503390416       0.20473625913822
C         4.92528989565608      -0.38936722511841      -0.60963165211993
C         6.15741292667014      -0.62304449309828       0.26080642906170
H        -2.15785227778527      -0.30572979853377      -2.09190152390559
H        -2.30156490542407       1.39065837830115      -1.56131833675597
H        -0.94247742732319      -1.56095738144610       1.12413780872913
H        -1.32289945215169      -2.00305543282018      -0.57116839021385
H        -0.04810017427936       1.23894289598202      -1.18431184720745
H        -0.04511538578124      -0.48556907317248      -1.60354687359517
H        -2.65686704998013       0.79089130699157       1.42307219992624
H        -0.93682894536367       0.60906667666404       1.80999555804529
H        -4.51813810175369       0.27592817695698      -1.73729012603730
H        -4.23576426884405       0.76405369520710      -0.06277999744508
H        -3.34273948520028      -1.22389859076242       1.63964073863252
H        -3.08345168999488      -2.80763947535415       0.90444224038023
H        -5.09476255705097      -1.56790642759063      -0.06687138325661
H        -3.87672720085768      -2.04323644104131      -1.27804159563855
H         1.18537425641837       0.78175064463524       0.93034054517106
H         0.99920551363142      -0.97383947612103       0.69442387653211
H        -0.40387265459162       2.66436584095736       0.44090233041252
H        -2.13218355827254       2.83434960523613       0.01572282725145
H        -1.60926942208225       2.99233425812234       1.70104603775868
H         2.51385817270508       0.87582044586901      -1.22689542165449
H         2.30380292345891      -0.87509896613400      -1.40354546731495
H         3.50730976019299      -1.23410082023201       0.78106451595494
H         3.73175310934728       0.51573907103951       0.94890546649923
H         4.83060700187056      -1.20661948119347      -1.34689140386352
H         5.05491085041724       0.54037366512914      -1.19360859081590
H         6.06970110795747      -1.56480746165145       0.82647917798599
H         7.07078279760114      -0.68174197883751      -0.35066064874549
H         6.28997599740850       0.19357076936134       0.98914395338121
P        -0.64963112609080      -2.70802786502023      -3.58349678167552
F        -1.54455096152340      -2.74903724022164      -4.95123489647950
F        -0.62930304691313      -1.02665754360072      -3.64387142930628
F        -2.05933125782017      -2.59534648411626      -2.66356623124165
F         0.22269404396024      -2.60926340740719      -2.14042888707985
F        -0.69139912904103      -4.33661932749016      -3.44100028055937
F         0.75087935001414      -2.75977316931638      -4.42544102474869
