25
C9H10F3NO2 optimized with DFTB in AMS.
N         0.71965511780476      -0.31572449745229      -0.23004150585813
C         1.96143450067859       0.02422667746178      -0.92927640815770
C        -0.08947861441834       0.69241952579997       0.22211113365653
C         0.58372333356727      -1.63734985581905       0.26279694207951
C         2.95234556102482       0.73520067649477      -0.00743385716339
C        -1.22583770839736       0.44074777460590       0.90919429266365
C        -0.75775818738669      -1.91912079970905       0.82635362748421
C        -1.58412307095222      -0.91847958454899       1.17655166466502
H         2.39781671812175      -0.90399852934745      -1.30785528791583
H         1.71352178585191       0.66775315119421      -1.78037971943855
H         0.20242635488927       1.69326617683185      -0.07498527831448
H         0.91773662930450      -2.37101194945810      -0.48123077685836
H         2.55761653755626       1.69894663042832       0.31251969199166
H         3.88508983306367       0.90137156366148      -0.54583799348624
H         3.15683394671651       0.13329211384073       0.87617761692494
H        -1.87352001448571       1.24864507533932       1.21939119114361
H        -0.99136304945570      -2.96056151814969       1.00503448988514
H        -2.54746938217279      -1.12776387235832       1.62721509849443
C         2.63977770421229      -2.56980890026531       1.20707222749338
O         1.60009581058133      -1.82348893533164       1.42236491520325
O         2.96528420822936      -3.10791600336923       0.18804452609204
C         3.50383824609986      -2.69401280107940       2.51599350508598
F         4.47571108134480      -3.58578057204230       2.36392115273326
F         2.75467279741058      -3.06287198055339       3.55489219131252
F         4.06390215281129      -1.51485894747411       2.80738680338354
