34
C10H21NO2 optimized with ForceField in AMS.
N         0.43031064989209       0.23301007786380       0.03572407882095
C        -0.52088784535532       1.27577406300571      -0.46442540753735
C        -0.08718040668172      -1.13260660632845      -0.28453308375803
C        -1.97719586481382       1.08115173039031      -0.00120102295441
C        -1.52847633237304      -1.37654653008604       0.19911071886095
C         1.73323416701126       0.46442970375774      -0.67268812642341
C        -2.47920472450759      -0.31655473399856      -0.34560131233418
C         0.63390956618917       0.39287649147534       1.50102647585405
C         2.88435099444067      -0.48321826339033      -0.28383152109555
H        -0.53409592010408       1.28377822637874      -1.57942777962771
H        -0.18912300133781       2.29050461769091      -0.14628429437115
H         0.54744802535630      -1.91585850812910       0.18331821753362
H        -0.06051476923724      -1.30699811295677      -1.38456271785102
H        -2.62114991768996       1.82703237001070      -0.51565596803736
H        -2.08153637743878       1.26934966651050       1.08719152247680
H        -1.57190444315137      -1.39253292481547       1.30848575723035
H        -1.86528285770946      -2.37478371310863      -0.15509277327699
H         1.59599069935689       0.37452421101150      -1.77469719089964
H         2.08858052357049       1.50510939642925      -0.49047503203094
H        -3.48908508790433      -0.46481399111169       0.09431524881755
H        -2.56551184795030      -0.42242550258224      -1.44923425014957
H        -0.31841405606223       0.37500328158675       2.06447516355259
H         1.24508240106926      -0.43398431766869       1.92028993377558
H         1.13867056159442       1.35751025560089       1.73153677177637
H         3.78592513855583      -0.21505085436593      -0.87395507716446
H         3.15820899817966      -0.38092617993865       0.78330944093138
H         2.64333749483760      -1.53976779332850      -0.51296158230522
C         6.44735452420890       1.40255261422999       1.90434021854200
C         5.20035102411566       1.79660035487613       2.63104796359392
O         5.11756872569350       2.89714114840629       3.15150188658032
O         4.26848799988871       1.01410134321315       2.71968384388626
H         6.89589990424575       2.28784837997534       1.40573220040194
H         7.17938627456694       0.98421404800683       2.62599840254820
H         6.22052872944395       0.63699916388917       1.13210042403414
