49
C13H25F2N3O4S2 optimized with DFTB in AMS.
N         0.99124684733342       2.25065852649314      -0.54248919233485
N        -1.15560708094425       2.34248626776130      -0.62182489652458
C         2.36545488507849       1.90124023541925      -0.88338723661561
C        -2.52909714600377       2.15286836254993      -1.08603539257549
C         2.71538744715685       0.53096525029778      -0.29150250894841
C        -2.84818722619336       0.66110640754142      -1.20416278098692
C         1.85569904132456      -0.58087740279504      -0.89693871592723
C        -2.59551460704241      -0.11510621753004       0.08967036919615
C        -0.06954495790141       1.99415841210294      -1.30642717808670
C         0.57356261664825       2.75850758159404       0.65807855823218
C        -0.78387924499190       2.81734768557657       0.60535584879146
C         2.21929946932693      -1.95857444618754      -0.33673019762918
C        -2.81652673499033      -1.61430018074739      -0.13899610618897
C         1.34890458904510      -3.04072853397024      -0.97266212508822
C        -2.48030245221983      -2.42344161964925       1.11158443679001
H         3.02239205983848       2.67695279891816      -0.48217913428680
H         2.44630919971497       1.88578312989229      -1.97317507971845
H        -2.62131275230150       2.63488147410677      -2.06311533248135
H        -3.18881772549259       2.64893868166821      -0.37014638916478
H         2.58548629297305       0.56485341368148       0.79484917554430
H         3.77153905153602       0.34046774835485      -0.50172488880665
H        -3.89714373201715       0.57153152851303      -1.49791325492601
H        -2.24333182103780       0.23058465309963      -2.00404791465071
H         1.99076200927408      -0.58669538900289      -1.98183959947571
H         0.79893686203464      -0.37690036028365      -0.69223612252562
H        -3.25944127291865       0.24703647027208       0.88276932016838
H        -1.56268769324209       0.04906005104185       0.41872359729526
H        -0.04908462648936       1.58788333291940      -2.31431985421037
H         1.26396854242426       3.03818093808661       1.43436302177172
H        -1.50332660907492       3.15786268814558       1.32918023188291
H         2.08197326878479      -1.96210890469448       0.75052383253567
H         3.27444023930625      -2.16733126368704      -0.54264770601683
H        -3.85965243487833      -1.78933210513909      -0.42035884046352
H        -2.18545085709400      -1.94586592053462      -0.96975878158450
H         1.46996992418888      -3.03646194105700      -2.05584833118979
H         0.29694936859517      -2.86611409291126      -0.74305832958001
H         1.63145616510136      -4.02144490968292      -0.58999015688492
H        -3.11197818095568      -2.11998092785070       1.94799562126369
H        -1.43647767012599      -2.27528375793257       1.39352235389523
H        -2.64054418436518      -3.48470011109586       0.92202978576079
N        -0.11094309042329       0.85816894298655      -4.09477519054858
S        -0.28660448216407      -0.72187148593830      -4.21663667338680
S        -1.25431923368052       1.81086238898044      -4.65343139721674
F        -0.53887789574321      -1.01551129542651      -5.77095972699014
F        -2.65448833704360       1.22373910717667      -4.05530811611069
O         0.98176732989288      -1.30659684697770      -3.91700446603826
O        -1.43985258010208      -1.24120893826873      -3.54692874423018
O        -1.44220735263336       1.80844256058927      -6.06170860105608
O        -1.10412024020777       3.06160920579361      -3.96626420097815
