61
C17H36F6NP optimized with ForceField in AMS.
N        -0.52617587469168       1.78106531716041      -0.19191806396424
C        -1.38063700315744       2.31888540016721      -1.30106883372046
C        -0.21101478188737       2.89946449941543       0.75631195127276
C        -1.20915817636198       0.66679299002206       0.55439573730672
C         0.75402113907736       1.31547693642969      -0.82803177569110
C        -2.66777777182452       3.00835146768716      -0.82266759447672
C        -1.45362466715839       3.64232524677123       1.28753717030974
C        -2.34101061898488       4.13908550531381       0.14870662327239
C        -1.51414032095552      -0.60720743084097      -0.27113269232998
C         1.77731925908428       0.63885856634227       0.11697825360449
C        -2.20345491686429      -1.65952730592654       0.60540443745607
C         3.04841867892100       0.26344092757818      -0.65756620048304
C        -2.48797904780530      -2.94179931071324      -0.18564571439901
C         4.05688460553097      -0.46374529457118       0.24086913019749
C        -3.19306132624442      -3.98213153085491       0.69235856553888
C         5.33148297218536      -0.81746219537312      -0.53584295636204
C        -3.46232591165486      -5.26920886331378      -0.08251840469338
C         6.33813635142996      -1.54447937626657       0.35215706320335
H        -0.81092726283137       3.07464516286231      -1.89042525532131
H        -1.64905524453763       1.52914704004976      -2.03281943400391
H         0.34265657762415       2.52586116881320       1.64450507672738
H         0.44469003757361       3.65452225787799       0.26464395091120
H        -0.60334240110303       0.37164436437098       1.43989882312234
H        -2.16930447163891       1.00908327889387       0.98737822495819
H         0.53661982138343       0.60545115546499      -1.65512350748920
H         1.26814283379453       2.17567317987920      -1.31685707662821
H        -3.19294201264112       3.43486993188933      -1.70449649712488
H        -3.36461228491036       2.28196105924307      -0.35683233949559
H        -2.03901564362432       2.99618375896504       1.97362820493804
H        -1.11718908438863       4.51686923628042       1.88541251546528
H        -3.28521746805941       4.54993056003712       0.56769136064418
H        -1.82210107956148       4.95960699021144      -0.39541090633473
H        -2.19021555454638      -0.37124495051373      -1.11713274393703
H        -0.57931308687020      -1.05128876914392      -0.66897892809734
H         1.35205981280528      -0.28903694244673       0.55166694051534
H         2.06299574426050       1.32425598734528       0.93979381427339
H        -3.16123137506275      -1.24430327825405       0.98986974982216
H        -1.54832598474544      -1.90127725413535       1.47138846184745
H         3.51582898467898       1.18864611875674      -1.06138281587063
H         2.77843931091636      -0.39676370407314      -1.51169754468490
H        -3.13265726077971      -2.70084107664131      -1.06001257577022
H        -1.52823357694496      -3.36365388827424      -0.55865050118851
H         4.32004563944027       0.18884054343012       1.10273706655275
H         3.59389654667821      -1.39722571348854       0.63140664942271
H        -2.55889551896314      -4.21919622314315       1.57448374340508
H        -4.16053897059018      -3.57074500243596       1.05488649108478
H         5.07478934309992      -1.47081620152665      -1.39832706966039
H         5.80145419329700       0.11167014950152      -0.92635139548187
H        -3.97310226084402      -6.00095514889936       0.57825671021645
H        -2.50769610789992      -5.71507495411220      -0.43363351355550
H        -4.11588408676146      -5.06425076436839      -0.95672157699890
H         6.63017884538543      -0.90318172172792       1.21034288724052
H         5.90319547394467      -2.49256012166063       0.73289609044128
H         7.24849074754687      -1.78394377654070      -0.23661992169658
P         0.86161684258070       1.10881009303448      -5.77069690799971
F         0.43049341007350       1.13563720541587      -4.11107573016501
F         1.08539544849271      -0.59288101141965      -5.68847641442465
F        -0.79797026589606       0.87281574621133      -6.14725019129558
F         1.23819182797183       1.11878207509932      -7.44693869314779
F         0.65668308156786       2.81420969471818      -5.80697677637839
F         2.51448416124638       1.31779793932688      -5.34987503447960
