39
C9H20F2N2O4S2 optimized with ForceField in AMS.
N        -0.41261606089286       0.17479530463353      -0.06815563688166
C        -0.98435273691810      -0.88216285118381      -0.95805083964404
C        -1.47240522511806       0.43370829754108       0.95493279217350
C        -2.45376182269227      -1.04362652617051      -0.62020223254215
C        -2.52996701919540      -0.64569912073490       0.82627044782793
C         0.82416784916198      -0.33312018172382       0.61092532818118
C        -0.15345800938884       1.41528966168268      -0.86878030618904
C         2.00963193242028      -0.61202811809369      -0.34402430210996
C         0.46924812236820       2.57357864345096      -0.06762391167253
C         3.15514654053427      -1.30340772919008       0.38982431052811
H        -0.50532819500220      -1.87529439047513      -0.79527261855624
H        -0.86881270164324      -0.65527436530999      -2.04282584215051
H        -1.98661885135447       1.40897750220577       0.79209403215348
H        -1.08233727999133       0.45847578832649       1.99812390817036
H        -2.80654688684986      -2.08575219337647      -0.77629983064602
H        -3.06224997428107      -0.34566002246319      -1.23682682514247
H        -3.54291952950421      -0.27423764756231       1.09471971750951
H        -2.26424229374581      -1.51084984589139       1.47210017594412
H         0.58504602235632      -1.27215987609042       1.16327647401014
H         1.16605329585117       0.38654002395429       1.38803854158707
H         0.51163253922816       1.19737135663923      -1.73309546523751
H        -1.10545126961584       1.78255417369065      -1.31676615598763
H         1.69554512004400      -1.25630212833185      -1.19120667769599
H         2.40247722948310       0.33810618513428      -0.76119448836731
H        -0.10361268669075       2.78787683304264       0.85689688017479
H         1.52280587908853       2.35498423120351       0.20019394599889
H         0.46917402135953       3.49029049967590      -0.69399630248672
H         3.52100163785785      -0.66444805257299       1.22179008989830
H         2.82052730094184      -2.28108384537843       0.79718968883480
H         3.99416632465767      -1.48226054650296      -0.31523876871441
N        -5.06658224792324      -3.83201636085725       0.77152794095281
S        -3.73060193035624      -4.77486692985342       0.82889633936730
S        -6.44482778428138      -4.35509194420751       0.06192333163566
F        -3.02986550157003      -4.82940594885522      -0.69015627567776
F        -7.10567470086069      -5.58835043081521       0.98109431751240
O        -2.75059587702172      -4.19903557391912       1.81047088043562
O        -4.10259181847415      -6.17107993690287       1.24259615899399
O        -6.14449744810112      -4.88188541920241      -1.31324894311413
O        -7.42443183958003      -3.22032142371603      -0.03188373757386
