58
C16H22F18NP optimized with ADF in AMS.
N        -0.02733978466298      -1.14448524632708      -0.71528807996763
C        -0.52469818790951      -2.06307033845597      -1.82826220527961
C        -0.65963383613056      -1.58258013932850       0.59112464719682
C         1.48355709802289      -1.32300754063346      -0.62545764092376
C        -2.03572607530315      -2.13419666060584      -1.92099182166218
C        -2.17797311333758      -1.66221894770701       0.53335209583265
C        -0.38385543928033       0.30393762194211      -0.99645831692972
C        -2.64669098431782      -2.57920951514896      -0.59448294615116
C         2.20131592770104      -0.47687156779245       0.41058472237753
C         0.31208914414867       0.90366106125368      -2.20192041521354
C         3.70641004281774      -0.74141907910231       0.29561040724932
H        -0.10463472535138      -3.05330859886597      -1.60173294754881
H        -0.05388403429419      -1.73557321512228      -2.76057034989684
H        -0.31931018897443      -0.88192813524398       1.36589072990883
H        -0.23235997013955      -2.57570748647734       0.80319622844992
H         1.87562564790375      -1.13222727027543      -1.63088710530694
H         1.64386798972675      -2.39352325229034      -0.43447476523305
H        -2.25823536408281      -2.85783380975517      -2.72243851935711
H        -2.46509068008097      -1.17041182842910      -2.24619053569390
H        -2.61598006572040      -0.65541845667171       0.42278514967002
H        -2.51608506495479      -2.03944832408948       1.51341365680584
H        -1.47239645761732       0.33694564958526      -1.12321895928437
H        -0.13897100219897       0.85927049320514      -0.07891178086249
H        -3.74678880771674      -2.58739330816093      -0.65129400361239
H        -2.32531444883819      -3.61491977254587      -0.38004862783895
H         2.01026725026857       0.59727766264408       0.24900505544785
H         1.86346439687519      -0.72231767777902       1.43137821622487
H        -0.08476857556560       1.91986893496334      -2.34810913105978
H         1.39830678122859       0.98667010637202      -2.06652245556233
H         0.12115170030859       0.34055923350963      -3.12598917588976
H         4.25919607668903      -0.15430811068293       1.04228607969367
H         3.93490833346480      -1.80571797945125       0.45509590360744
H         4.07945037754896      -0.47303365662588      -0.70404875347237
P         2.68635456309522      -3.72862374170823      -4.25409707862044
F         2.24223881493512      -2.50912808606289      -5.30475730376480
F         3.43861154903489      -4.55400775434937      -5.46897380681379
F         1.93250322297883      -2.93234344617022      -2.95518657119569
C         4.30411705737641      -2.64852212331818      -3.85882166528885
C         0.90123691186569      -4.49969927514359      -4.68582654607377
C         3.23881517188968      -5.21569770214404      -3.02168059266090
C         4.27911931925159      -1.12013774375441      -4.20132087676284
C         0.70691777622441      -5.20343332199903      -6.06135983734355
C         2.81771150603505      -5.25499051311346      -1.51446720748729
F         5.41603772152852      -3.12415490126543      -4.50761350208927
F         4.57994844024994      -2.67032874668349      -2.50070824653057
F        -0.03497010970243      -3.46749452458913      -4.68025304655253
F         0.44113922835701      -5.39336329756609      -3.74124003504887
F         4.61612317358712      -5.29152800857200      -2.99276887685764
F         2.80534643923721      -6.41312376760775      -3.54574495222951
F         5.37661758726062      -0.52084933167087      -3.65041769401819
F         3.18854855503893      -0.48610320605852      -3.66987715601383
F         4.31269829379422      -0.88156046433656      -5.52470300161171
F        -0.61093410187927      -5.54319708207636      -6.20854427864038
F         1.03740418490328      -4.39279841134300      -7.08850120819830
F         1.43003196252674      -6.34034528111639      -6.14625744163623
F         3.36822511340071      -4.24360823582928      -0.79162499974754
F         3.23759386998507      -6.42130941643675      -0.95563120465553
F         1.46943378499813      -5.18467206719196      -1.33156113187605
