46
C14H29NO2 optimized with DFTB in AMS.
N        -0.22659180875344      -0.37550619713142      -0.57222038997964
C         0.50848242656260      -1.61266795422381      -1.04482562836302
C        -1.66867358277816      -0.78022615191429      -0.43785203666292
C         0.27395492598534       0.05110988287872       0.78235609460539
C        -0.51089461982608      -2.74520808854670      -1.09447338738987
C        -1.63855595055946      -2.27778738326110      -0.17849702156820
C        -0.07694226350800       0.71218742575772      -1.59681534715186
C         1.73974903274837       0.47522943062886       0.82003940883216
C        -0.78924700351143       2.00338472981916      -1.22874689692903
C         2.11266613220343       0.87135762627220       2.25150301608510
C         3.60659980965040       1.18765635997710       2.40288138581493
C         4.51059704869599      -0.06066482849311       2.37574942696508
C         5.21456657056918      -0.27352119032063       1.03592123286263
H         1.31581494081669      -1.82359135148324      -0.34719165299442
H         0.96369245696321      -1.40597274785007      -2.01217376259477
H        -2.16947018439183      -0.57181255659729      -1.38612760675955
H        -2.14422414538370      -0.20486304706975       0.35596420313365
H         0.11350184519720      -0.80074534242938       1.45020853954778
H        -0.36685939691363       0.87110063748887       1.11771558976517
H        -0.07058147135636      -3.68487142477957      -0.75913972831459
H        -0.88601435227741      -2.88007847113883      -2.11233174798130
H        -2.59596480524239      -2.73923455866863      -0.42287534593462
H        -1.40296523686127      -2.48677301950404       0.86810750746027
H         1.00708766030253       0.90537842141632      -1.72904487005565
H        -0.48130611529218       0.31253971749911      -2.53030224140061
H         2.37063173438000      -0.34791383195375       0.48458024668222
H         1.91839635311308       1.31644804510453       0.14688353407493
H        -0.70820720418982       2.67494998931623      -2.08316895291914
H        -1.84654384855614       1.84771080916811      -1.01179652781410
H        -0.31892466183294       2.48948191811315      -0.37536755919148
H         1.83946118253751       0.06440795670498       2.94216658561151
H         1.53457431435424       1.75792734184602       2.53744227630637
H         3.73721774693957       1.69584524919892       3.36402290013263
H         3.91007161868876       1.88901709083131       1.61950139699721
H         5.27411966470123       0.04817043220953       3.15418797904772
H         3.92197319612018      -0.95097848186952       2.62431652284126
H         5.80566546201897       0.60489166152077       0.77367677700044
H         5.88354912516727      -1.13243708431672       1.10608065735139
H         4.49950455349549      -0.46233296203908       0.23671653416480
C         4.71582766007747       0.43340886357195      -2.91006456497810
C         3.38899812683109       0.35285277654406      -2.12073388953898
O         2.71650230650012       1.40338885268137      -2.05125695290507
O         3.09483083839542      -0.75521408263255      -1.61789169230474
H         4.50154754228379       0.73412098440353      -3.93484579457474
H         5.35368733630920       1.18957001982956      -2.45412700987541
H         5.22175549962581      -0.52989371295859      -2.90488861800090
