53
C15H32BF4N optimized with ForceField in AMS.
N        -1.08578759144917       0.82645561497980      -0.18255463149125
C        -1.57183184117484       1.86860608018981       0.78066964972144
C        -2.05935051461209       0.73451797542594      -1.31953551389332
C         0.21713417752790       1.28824531150980      -0.77456827566054
C        -0.93351642673360      -0.48737824753026       0.53570630887457
C        -3.01957835013526       1.64820175792537       1.26806916401250
C        -3.50683914784871       0.44938150861605      -0.88671824273542
C        -3.99066898574603       1.50924598853901       0.09834991642825
C         1.41901686771595       1.36602499895405       0.20076590265120
C        -0.34695126840433      -1.64892746970252      -0.30387411902716
C         2.66669134099802       1.88324619302631      -0.53012114407639
C        -0.22118756754073      -2.91858303517757       0.54945632827562
C         3.88488863291692       1.92475693294213       0.40032743142176
C         0.36236250927085      -4.07892189494324      -0.26551747970794
C         5.11868815634195       2.43826423403107      -0.33792658139214
C         0.47569334146594      -5.34249577550770       0.58259083527258
H        -1.52808870542491       2.88053791762184       0.31578467685242
H        -0.92870540373867       1.90649109469389       1.68621825116123
H        -1.75114960238454      -0.03035876210981      -2.06237958406645
H        -2.07730454741566       1.69643948659433      -1.88458238155015
H         0.08940192183101       2.29930569037821      -1.22441706893351
H         0.50690734961112       0.63681347272131      -1.62948150555477
H        -1.90657585727655      -0.83634248228339       0.93359900667935
H        -0.30150342520505      -0.35656436837002       1.44174134852641
H        -3.32666814146124       2.52141912804413       1.88433646515433
H        -3.08539810981345       0.75744087066687       1.92683721463843
H        -3.60365941611162      -0.56539122363670      -0.44920217840838
H        -4.15995689289360       0.47404242073611      -1.78637308884539
H        -4.08539475445518       2.48719882793888      -0.42380592944927
H        -4.99473108330997       1.22609971028188       0.48159717564426
H         1.19577121597202       2.05591155124211       1.04048311902861
H         1.65446304550072       0.36243414521534       0.61146679868579
H        -1.01072776455901      -1.87806456256722      -1.16221777902900
H         0.66178773366389      -1.39032855351660      -0.68599496254386
H         2.46688920737225       2.90687233786170      -0.91857646975493
H         2.89031904850951       1.21591933730616      -1.39217975060266
H         0.44030630075990      -2.71293349370256       1.42038884629602
H        -1.22674697623816      -3.20702951030652       0.92889797964832
H         4.09650807268847       0.90371643037216       0.78785722111815
H         3.67589006209442       2.59360550775571       1.26409871657837
H         1.37303884817630      -3.80310988141400      -0.63951497775325
H        -0.29192123640024      -4.28943306642157      -1.14014736596231
H         5.98770348006979       2.45810224230661       0.35358734389163
H         5.36140927742885       1.77181579973276      -1.19363228496373
H         4.94134942464993       3.46841557577242      -0.71523526792266
H         0.90293554735892      -6.16518164701284      -0.02932578549200
H         1.14250452943140      -5.16423716467377       1.45366636570798
H        -0.52726972351779      -5.65425952410734       0.94609133770160
B        -1.62913436683077       5.02075790610092      -2.83128883172632
F        -2.81616998951451       4.77047099184718      -2.09260796670889
F        -1.58254578145653       6.39061751089038      -3.20420633511308
F        -1.61838325952068       4.21168071004039      -3.99862272944810
F        -0.49852933518315       4.71212981192300      -2.03014866605794
