44
C12H11F18N2P optimized with ForceField in AMS.
N        -0.52983327708663       0.17396920828189      -0.35341818324199
N         1.65858830095370      -0.07089863701297      -0.05272872976207
C        -1.92708590842711      -0.12486800984372      -0.65605958346200
C         0.50938157724469      -0.68281533670458      -0.39794788791290
C        -0.01989130220623       1.36286935774322       0.02723139034724
C         1.33911708559556       1.21044227374106       0.21274003020534
C        -2.74822199682173      -0.17853319753828       0.62726651965892
C         2.98238971100998      -0.67119356045307       0.04038898942024
H        -2.33663425441167       0.65486444171273      -1.33426832252162
H        -2.00333109638150      -1.10545018997142      -1.17430367327083
H         0.42896732754215      -1.72942401400791      -0.66550086982138
H        -0.59171443196210       2.27210187648450       0.16057906751322
H         2.03920055037029       1.97541451262198       0.52334125137823
H        -2.35183256831074      -0.97064199897848       1.29760887515361
H        -3.80622223113768      -0.41093814646089       0.38429656346980
H        -2.70733545496336       0.79828715529976       1.15350255153671
H         2.93689459924995      -1.75650695575942      -0.19347330828228
H         3.66839525755149      -0.17559270761019      -0.67792571565206
H         3.37578043502183      -0.54176640484292       1.06997791813605
P         3.77104639587539      -6.17332084192681       3.76440803565780
F         2.52653237228602      -5.08487920234833       4.24374003836364
F         3.45990583030682      -6.85749091269855       2.21345004714733
F         4.42476483556324      -5.43902252252431       5.17670718345039
C         4.11479859401571      -4.67823382502665       2.57765912219011
C         2.32104751757486      -7.27956609426412       4.41243812658631
C         5.33398733544968      -7.26363865010009       4.09080862012169
C         4.38577088188821      -3.29295835597654       3.22485010639135
C         2.47697015540525      -8.80810139832816       4.25870424396419
C         6.70611332793568      -6.64570297586457       3.75357766363714
F         3.01901553542942      -4.50428208698431       1.74064922389954
F         5.19139812088027      -4.97438725859532       1.76522844961782
F         1.15052671641263      -6.95039418686224       3.73632475906806
F         2.12790640650696      -7.02245377720759       5.76255722236266
F         5.23814019425482      -8.41314996757960       3.32609763205148
F         5.36187401746864      -7.65810646781151       5.42202695101723
F         4.82354199146892      -2.42326543956287       2.24241740700900
F         5.35859764337211      -3.34303344373135       4.19980989291942
F         3.23171390411003      -2.75929492781540       3.77018884621825
F         1.29315736108948      -9.41531646607645       4.63947833650266
F         2.72757974437385      -9.16247931632683       2.94655296214770
F         3.47261621535125      -9.30458599899073       5.07560919240918
F         6.91746017354522      -6.63971923102886       2.38767510339001
F         7.69984792440168      -7.42316109921854       4.32250129926313
F         6.83744450370300      -5.36785558465159       4.24880337352169
