36
C8H18F2N2O4S2 optimized with ForceField in AMS.
N         0.01024346423385      -0.02359159332273       0.01250555223840
C         0.91691838345688      -0.87009610251717      -0.82262670418613
C         0.92469284950931       0.80577324915742       0.85587094381661
C         2.33398839980486      -0.35533557022083      -0.65548746664984
C         2.32857957293575       0.24923453900545       0.71945909814233
C        -0.83686444787767      -0.88607879068075       0.89847628189022
C        -0.81273980312443       0.85459100824147      -0.88037802659470
C        -1.84764707559563      -1.77388159920167       0.15101662524267
C        -1.80931459022186       1.76407271484954      -0.14043628571310
H         0.64343122533689      -0.87680961867500      -1.90255395746045
H         0.92013537508105      -1.93475258470915      -0.49334969134254
H         0.63158613325187       0.83180065406662       1.93023424965612
H         0.96361661437142       1.86610145724293       0.51586956831495
H         2.54305315414672       0.43143092954499      -1.41424587913667
H         3.08574758471809      -1.16988666368622      -0.74313738015482
H         2.49697753301451      -0.54313924140850       1.48232805752118
H         3.10279556524510       1.03958829366637       0.82400593718420
H        -0.18660342997891      -1.55042863530176       1.51334456174839
H        -1.40217572257229      -0.26581394522363       1.62884398348562
H        -0.14481476386710       1.50468367521008      -1.49164111924769
H        -1.38572467813977       0.24475572590952      -1.61360040876739
H        -2.29535576195792      -2.49537773658446       0.86634066700295
H        -2.67494299884800      -1.16769522444118      -0.27039204418015
H        -1.36633459928484      -2.35066678848221      -0.66446150488790
H        -2.23892736087451       2.49227838663076      -0.85992221612380
H        -2.65041858252663       1.17548705987061       0.27861580710661
H        -1.32007006098785       2.33338569158505       0.67560188941739
N         5.44719169646837       3.81085430016276      -0.94805270717266
S         5.68440540644486       4.28415001096960      -2.49640270525046
S         4.04715967669836       4.14049840132819      -0.16820368319931
F         5.76264517389393       5.95488719508800      -2.56455969302858
F         2.77681819725063       3.38628991762044      -0.95499775114402
O         6.97071634639697       3.70215044538748      -3.00954962326058
O         4.54042633842849       3.81715990508658      -3.35224752313898
O         3.80491645726627       5.62379863661816      -0.16951704023743
O         4.12962634110326       3.64399481671325       1.24716093200955
