61
C17H24F18NP optimized with ADF in AMS.
N         2.83837283972019       0.05465310069922      -0.65983094931276
C         3.39884374887355       1.03700577080921      -1.68215297930984
C         2.96840942323159      -1.36522327995550      -1.19826335127000
C         3.70405685940683       0.18918812981233       0.58310042261080
C         1.37963835481781       0.33557297448696      -0.36059447307746
C         2.79969129712107       0.87570452868172      -3.06779346062613
C         2.37300947811449      -1.53947578167747      -2.58510609549515
C         2.98803413291113      -0.55353826577078      -3.57494568962114
C         3.37405954470960      -0.75126191339174       1.72792792569779
C         1.09844773600237       1.65349634017025       0.33201249464063
C         4.21488919661364      -0.37857268582294       2.95465651938204
C         4.07699532382845      -1.40418922265334       4.07515199450208
H         4.47728675728677       0.83432082105639      -1.71692369440193
H         3.24883062294545       2.04294469265452      -1.26695426962523
H         2.48844612538854      -2.02189916144097      -0.46039337787255
H         4.04383534141956      -1.57686611383595      -1.22214209179167
H         3.63104591536757       1.24210160509135       0.89431788546856
H         4.73023082177558       0.01141977243227       0.23961095423977
H         0.85372907031245       0.28455465304139      -1.32121566039883
H         1.03090710990487      -0.50821882183086       0.25095867256779
H         3.32082748578049       1.59506471063148      -3.72129180055688
H         1.73248001894666       1.16112179315844      -3.08181344453958
H         1.27287235254465      -1.44351298227755      -2.56650484372914
H         2.59149902211495      -2.57729950581555      -2.88623628776884
H         2.53635823015792      -0.67395300007414      -4.57205275241936
H         4.06602207086775      -0.76796023203643      -3.67284411955151
H         3.61529968387143      -1.78813614946437       1.44184564388551
H         2.30443488271597      -0.71395531389425       2.00037316746331
H         0.00762828718366       1.74882973874801       0.44813501597316
H         1.54018273994036       1.70322148159055       1.33646397618721
H         1.43752200523753       2.52035824608518      -0.25138776751578
H         3.91456770171112       0.62328757321153       3.31248754523431
H         5.27283575620615      -0.30760842137284       2.65392761807241
H         4.43764588659125      -2.38973646989292       3.74066302999902
H         3.02789288513806      -1.51234496830555       4.39474200851839
H         4.67068046060709      -1.11136437621647       4.95354863465001
P         7.46108245287268      -1.56921006711234      -1.77763516575424
F         7.72296950484553      -0.97544748337429      -3.30689384472541
F         5.96621059214293      -0.72968899033282      -1.73975902528004
F         8.88550130762726      -2.40830603737030      -1.73849634587860
C         6.58456656895738      -3.12909430771175      -2.64779952074918
C         8.42932783621486       0.05665274495818      -1.15530328418016
C         6.95273891177777      -2.18838953223057       0.06850140767285
C         6.92479459659937      -3.41847405347620      -4.14780693644485
C         7.69414108364832       1.43063236830047      -1.18850638902516
C         7.89062046117770      -3.07561725449540       0.93953694712423
F         5.19433227891961      -3.03508832827428      -2.64346439887313
F         6.90035971168522      -4.28565669815975      -1.97875707226753
F         9.52577012362070       0.22332850201459      -1.96994774059516
F         8.92379224263862      -0.05193295142173       0.12590369179224
F         5.75269150470155      -2.88693661753862       0.01049687809896
F         6.68110683077031      -1.07851554708087       0.85402773004099
F         6.39593156953319      -4.63145130992510      -4.48970202963137
F         8.25101845128406      -3.46983372225076      -4.37389561956060
F         6.36419889676568      -2.49874325863190      -4.97396746052944
F         7.16225669048608       1.70378945177750      -2.40442201681587
F         6.68651185070568       1.49568715135135      -0.26791173302403
F         8.56718915813227       2.42732225760981      -0.88560993223585
F         7.28325388513905      -3.29186576030819       2.15079622647672
F         9.07376058688194      -2.47730894416821       1.17824374589909
F         8.11523113360564      -4.27924625437998       0.37816789395655
