32
C8H15F6N2P optimized with DFTB in AMS.
H         2.73299788972431      -1.81312546210805      -2.52828878110993
H         1.17451874380596      -2.59936804733632      -2.13538628723322
H         2.51893532877035      -2.67641694747548      -0.97621922621149
C         2.03056134279075      -2.06140508951206      -1.73395714109245
H         1.77466558987318       2.02536275176239       0.41378733788853
H         3.41461315984519       0.21756143847024      -0.90189066672992
H        -0.52197249655545      -1.27432550924415      -0.84884815253429
N         1.56144833757794      -0.83675671127652      -1.10765543923208
C         0.31506076221490      -0.61430768262006      -0.70355846011992
N         0.28978657678368       0.56200615229012      -0.07878416926936
C         1.55449838436313       1.08208653256265      -0.05395855091931
C         2.35733892687633       0.19849783938809      -0.70427073236395
C        -0.87561858273851       1.12065547951142       0.60019685927417
H        -0.73446062689441       2.20291255090802       0.67185637558893
H        -1.75122417693763       0.91650464115631      -0.02212544177654
C        -1.04651029672538       0.49169740196148       1.98704714190868
H        -1.06448157827703      -0.59629419931230       1.88673194167103
H        -2.01727762968980       0.81536425178875       2.37471201501811
C         0.06511478048877       0.90086187258231       2.95671017006747
H         1.02931240408001       0.57392763413083       2.55774827494223
H         0.08818850434752       1.99333875288917       3.04949850095526
C        -0.15044960531446       0.26600808672462       4.32931471796220
H        -0.18789751438959      -0.81925528680599       4.24038231585610
H        -1.08456499831007       0.61633026508370       4.77119958483627
H         0.67194064871378       0.53420963391502       4.99229634667459
P         1.16126032938572      -3.05056202200202       1.81301033848221
F         1.55704696117529      -1.43456307786969       1.59286311825763
F         2.53648522466127      -3.45501172055350       0.98224102340720
F         1.97004382345482      -3.05373823586261       3.22364251937451
F         0.75902898256779      -4.61575341318676       1.97411181488163
F        -0.22920945094956      -2.57430020077567       2.56666884652835
F         0.33736536578119      -2.99852061698390       0.34225056981735
