42
C12H23BF4N2 optimized with ForceField in AMS.
N         0.22180501582044       2.31003976751027      -0.19870596640729
N        -1.85335231319203       1.50689422524391      -0.19455759178777
C         1.61462421062405       2.51371630666568      -0.59777488251911
C         2.54285137445128       1.49620947766816       0.08551454071023
C        -3.03979028885163       0.75354737639645      -0.60039762432447
C         2.11432316755066       0.05210134714160      -0.20989682808269
C        -3.07440654721899      -0.63038281370269       0.06527754260269
C        -0.73795358947687       1.70291797083754      -0.92460884628192
C        -0.30745929126621       2.51398860854760       1.02469874305911
C        -1.59557053609220       2.01698054940778       1.02680168715431
C         3.08817383719461      -0.96950362577368       0.38216797010643
C        -1.87246836787554      -1.49266274997867      -0.34351077427096
C         2.58502545613572      -2.39293430207125       0.14696330448814
C        -1.93532298854890      -2.88133395122019       0.28348933204264
H         1.92859561600619       3.54440586578745      -0.32712547678890
H         1.70946451734096       2.41248734928916      -1.70153276751021
H         3.57975396995052       1.65881814612229      -0.28127289712402
H         2.53735173146260       1.66923186621859       1.18381568484246
H        -3.95013445516718       1.32318243620176      -0.31580672094336
H        -3.05248865250908       0.63177004513939      -1.70595512884668
H         2.03977428087781      -0.09923053730360      -1.30964071537561
H         1.11787544248019      -0.11966270459003       0.24207073028334
H        -4.01353626604609      -1.14417624654265      -0.23536086346542
H        -3.09151487579196      -0.51010729783570       1.16916830648828
H        -0.59805836099592       1.33513325633761      -1.93367957845518
H         0.22046269642152       2.94531930448484       1.86495423474221
H        -2.27642997581291       1.98947379428083       1.86717555554566
H         3.19014536411648      -0.80097737361046       1.47656604710035
H         4.08815274048436      -0.85320610722410      -0.08895610450759
H        -1.83621428121571      -1.59290405365603      -1.45017910786389
H        -0.93772540777558      -1.00649842563608      -0.00528900737554
H         2.49690035986997      -2.59699705607514      -0.94156798699294
H         1.59072225322229      -2.53532938443506       0.62341277681593
H         3.29707320173444      -3.12115902198032       0.58867252320473
H        -1.96085783413594      -2.80447320174617       1.39091631371014
H        -1.03358323218761      -3.46058487919185      -0.00924544364066
H        -2.83747903212299      -3.42462679434281      -0.06772654967129
B        -1.45776436011369      -0.60516615034475       4.31984036258324
F        -1.66220248212502      -0.83367175967574       5.70649037438702
F        -0.46751985760879       0.39752014302560       4.14479103232474
F        -2.67531887734109      -0.17650585914110       3.72944559109687
F        -1.02672842237218      -1.80823398502844       3.70138897614701
