24
C6H15NO2 optimized with ADF in AMS.
N        -0.06572745238654       0.18380037145042       0.41928705622873
C        -0.05226474497005      -0.98381210765471       1.36871897980255
C        -0.24895641474513       1.45388683649341       1.20693655981431
C        -1.16464174863193       0.02686701623585      -0.57533682598446
C         1.26630585829720       0.24512010808744      -0.27830028777621
H         0.86529121028007      -0.87161886355566       1.99326394033211
H        -0.97987125058224      -0.95878457417223       1.95421277779532
H         0.00012857765738      -1.90483072059596       0.77310127800858
H        -0.34278975760445       2.28262309220628       0.49174635898187
H        -1.17004094007658       1.35771824235425       1.79702834527438
H         0.66599936453158       1.58626286155566       1.84597776566588
H        -1.15028058762498       0.88398717045845      -1.26104570058981
H        -1.01105621463431      -0.90558274804650      -1.13435371853940
H        -2.12202366949562      -0.00935457713127      -0.03994482999913
H         1.29151865381786       1.15314344611190      -0.89343332618653
H         2.03636063626783       0.25567913494944       0.51377011645743
H         1.36684581708600      -0.65074188504887      -0.90475912521795
C         4.04271054099806       0.76395664063137       3.91866577005310
C         2.89727422635946       0.66302785257277       2.90512368377945
O         2.64426582152884      -0.49030278111214       2.42467426772158
O         2.29671288447024       1.74395433496413       2.62362613482856
H         4.76973283501255       1.51798661574876       3.58065428841956
H         3.64307832408323       1.11442728901333       4.88283569849613
H         4.54440425066154      -0.20238989031614       4.05948175723393
