64
C18H26F18NP optimized with DFTB in AMS.
N        -1.05035322470642       0.13185102660050       0.87003787426610
C        -1.54757224022376       1.53133093888654       0.64984595150891
C        -1.80916953059891      -0.47392036359241       2.01934437300483
C         0.40456273994667       0.15042348119333       1.27109241117936
C        -3.04826147750067       1.58453573954179       0.38709018296798
C        -3.31648215017010      -0.48330312084525       1.79433497636243
C        -3.85152192901712       0.91765189369839       1.50219381628328
C        -1.20503852918006      -0.69329200721812      -0.35600466368865
C         1.35789160960400       0.72304272144067       0.22451913336535
C         2.74909912715110       0.89366621647236       0.84870781625984
C         3.75877652544795       1.39736164508199      -0.18589273887987
C         5.13705258748290       1.60213482711561       0.45116092297027
C         6.15184510851461       2.11103842989793      -0.57068114961323
H        -1.00890941020892       1.94797773683931      -0.20254518685097
H        -1.29125724678046       2.09975343570716       1.54561972803834
H        -1.56302930103514       0.11799901260890       2.90404466281804
H        -1.43409989182560      -1.49092020750024       2.15567850024939
H         0.46731014039972       0.73211837830777       2.18968137925539
H         0.67853525708837      -0.88306910453491       1.49901872462429
H        -3.32347969822025       2.64051093732290       0.32533893183370
H        -3.27995625425452       1.12291992263661      -0.57766318782504
H        -3.58055376206088      -1.16925701116772       0.98380247011764
H        -3.77438547007564      -0.86556646085047       2.71020834339567
H        -3.79667240079018       1.52710615769032       2.40590714874466
H        -4.90041614323693       0.85151604921269       1.20401881643700
H        -0.70116240812516      -0.19913221789518      -1.18332417218465
H        -0.75974319334960      -1.67059091184063      -0.17835338847844
H        -2.25810697867639      -0.80998612139832      -0.59534072913181
H         1.42580463259639       0.05433256990541      -0.63893632993819
H         1.00984065399900       1.69750907180220      -0.12611576546654
H         2.68523295290511       1.60840207553203       1.67352946772270
H         3.08579294461023      -0.06387513315652       1.25860527114771
H         3.40555524788805       2.34490618644350      -0.60704343907363
H         3.83540664001238       0.67498685693983      -1.00635914248366
H         5.48684069894465       0.65370867833807       0.87232259653555
H         5.05310355381535       2.32193588985453       1.27158186201132
H         6.26342965690824       1.39746994343269      -1.38844660565208
H         5.83005238312173       3.06714260919226      -0.98566587349812
H         7.12261718536531       2.24832952868490      -0.09447660726555
P        -0.66106061617968       3.45290513344635       5.61240926791938
F        -1.62160574598804       4.60272711702074       6.34063797245215
F         0.10165687029559       4.64803659889427       4.70536901361585
F        -1.40923487314489       2.21288524953936       6.44791551901385
C         0.63829192849121       3.66466479178053       7.04578658509517
C        -2.11980118425951       3.32635852523730       4.28802937926520
C         0.44513690731915       2.08892678262485       4.56930818123567
C         0.38620038354527       4.73403434818016       8.14191880447159
C        -2.24942748474762       4.38667496939946       3.16579160184616
C         1.95588336182590       1.76621404715779       4.71411621314459
F         1.83291813255339       3.95873135686050       6.49599013809230
F         0.78168640132965       2.48867961774516       7.68369478920217
F        -3.28800290961792       3.34248962442644       4.94438979605227
F        -2.09126228022527       2.13034643708991       3.62888261815757
F         0.34975979559650       2.49807421950485       3.26567782847034
F        -0.15652261078805       0.87193241326993       4.60424331185888
F         1.40877799600296       4.74712126902082       9.00131672261817
F        -0.71788185686389       4.46868721842852       8.83132314603714
F         0.28386106521014       5.94975333094339       7.61616330970388
F        -3.35592451031447       4.12516657639729       2.44138970573348
F        -2.34783449206013       5.61768090049100       3.63066362441661
F        -1.22539864596454       4.33014816752760       2.30870152294961
F         2.71878353703100       2.78783473424208       4.35040965718350
F         2.23898783338708       0.74826305872778       3.86594720848175
F         2.30536548010119       1.36604096356340       5.92411869811342
