63
C17H32F6N2O4S2 optimized with DFTB in AMS.
N        -1.11925062395950      -0.81695526355183      -0.59396004842656
C        -1.92533401260514       0.43532451564270      -0.77656825468475
C        -1.92589820750002      -1.98559046174257      -1.08541178021199
C         0.09607075171660      -0.74391090671434      -1.48504231029243
C        -0.73472477504410      -0.95973822205805       0.85544545441102
C        -3.29876500097222       0.36972758195428      -0.11438230449054
C        -3.28304638915557      -2.10905438299173      -0.41326163007318
C        -4.09748661264249      -0.83416546333093      -0.61422383882102
C         1.15791382075672       0.27445408098563      -1.08622857974089
C         0.17142260437797      -2.15188482267168       1.19484157787962
C         2.30839787519958       0.18677920512573      -2.09873605552770
C        -0.59142841397636      -3.30863256531659       1.85019864015633
C         3.44014294132555       1.15147005711902      -1.73517397297244
C         0.35405968177040      -4.47309164499216       2.16386127019917
C         4.60067096206947       1.03044746539317      -2.72097772708135
C        -0.42166229627097      -5.67678568824889       2.69281730628054
H        -2.04405130207421       0.58002787637978      -1.85397448922903
H        -1.34700687040461       1.26812046545493      -0.37110954777993
H        -1.32562892384515      -2.88157537239697      -0.92850640005771
H        -2.05627722294095      -1.84383787824611      -2.16136890466911
H        -0.27112396504571      -0.52742156895115      -2.49105244181574
H         0.54101127607404      -1.73805694551535      -1.49859122596017
H        -1.66161048092157      -1.02701246257688       1.42743088132564
H        -0.24578060510446      -0.02264632457986       1.13046463692668
H        -3.82305714929900       1.29595557567637      -0.36478518694508
H        -3.19913843169655       0.33054986537372       0.97357185021483
H        -3.17369027390153      -2.32480264361308       0.65199254112738
H        -3.78879256180884      -2.96282957460558      -0.87087192420281
H        -4.32690226500492      -0.70569318517266      -1.67684443239187
H        -5.04061904787632      -0.90013040637651      -0.06722426642563
H         0.74727129597293       1.28866612892214      -1.07602165548790
H         1.54814098235979       0.05181098938786      -0.09006465710546
H         0.68899465474201      -2.52379740212053       0.31059425822816
H         0.93756014652017      -1.79285217200576       1.88890181345036
H         1.93088123759653       0.42037865426633      -3.09961847986823
H         2.69027046823257      -0.83852818149917      -2.11482299945825
H        -1.07290740052386      -2.95848113393079       2.76998105612886
H        -1.37403220567620      -3.66546569053946       1.17671564369645
H         3.79618568032573       0.92893103499884      -0.72361012023476
H         3.06107704450434       2.17954442215949      -1.73829628231666
H         1.09901611320505      -4.15415338321873       2.90063341667529
H         0.88259868903013      -4.75879050084493       1.24957871995922
H         5.39811868337672       1.72040808647036      -2.44494891694858
H         4.99980384154779       0.01580637865891      -2.71553608759594
H         4.26895687400674       1.26780914517623      -3.73255105120187
H         0.26415315703076      -6.49731360554265       2.90291288456475
H        -0.95326217566934      -5.42154533758190       3.61102203246229
H        -1.14748844140841      -6.01200879874918       1.95105405318836
N         0.15765621543098      -4.34565324583415      -1.19619285081574
S        -0.98501326393121      -5.44334335749239      -1.50397379119500
S         1.40702509320031      -4.27327296523474      -2.19922718494235
C        -0.31635386718384      -7.11766416581909      -0.98065435286166
C         0.77746938907462      -3.58110880440475      -3.83229591699465
O        -2.04303682702203      -5.16097240125894      -0.55606276028908
O        -1.33974218012308      -5.56465579221653      -2.89556573868095
O         2.03349067681567      -5.52774600734086      -2.51457681441721
O         2.22853349475025      -3.19018479340704      -1.69866990507413
F        -1.28984216486924      -7.80623859543003      -0.40717889756381
F         0.65932952716964      -6.95153735135417      -0.10060923094206
F         0.13523468260255      -7.78757788885922      -2.01786360633695
F         1.68763438246761      -2.74971027211756      -4.32291392412921
F        -0.33124090065971      -2.86322953871820      -3.59809043776328
F         0.51351156986387      -4.50513922987177      -4.72416141715135
