44
C14H26N2O2 optimized with DFTB in AMS.
N        -0.20046964973644       2.07796689795270       0.41709959213063
N        -2.18034391238884       1.42575785862551      -0.13031841371962
C         1.24433478393900       2.27302997264796       0.38799345131224
C         1.95760292581600       1.12818787008751       1.11477480372506
C        -3.27688753203935       0.78103476350625      -0.84139450329235
C         1.75055850148055      -0.21328442404341       0.41044800076776
C        -3.37236866902191      -0.69843450923918      -0.44944291531545
C        -0.91619292693287       1.48745643960013      -0.54464661509836
C        -1.00606453621660       2.31969674844963       1.49541618387302
C        -2.26063733381409       1.92322717476788       1.14163002032020
C         2.34980587788721      -1.36204943778188       1.22689516864788
C        -2.27306075926552      -1.54205177160953      -1.09990672431804
C         1.92858698753529      -2.71359664714166       0.65355936393860
C        -2.23729827705029      -2.94256164898267      -0.49349586041160
H         1.46001961947928       3.22662073769666       0.87777235221441
H         1.55423254295286       2.33234850968798      -0.66008664183658
H         3.02208452195355       1.37691425534073       1.16394791498144
H         1.56336744426997       1.06647176750326       2.13303879254387
H        -4.19633556168483       1.30731921043742      -0.57084900681059
H        -3.10398582863861       0.89704908294384      -1.91569783030999
H         2.19742563359451      -0.18705725645236      -0.59086862712492
H         0.67660080257935      -0.39024508972776       0.29997816970101
H        -4.35741578729533      -1.06543939944157      -0.75281663748673
H        -3.28880992286710      -0.77846945256619       0.63740301189281
H        -0.54845361409926       1.18661128533376      -1.50926290087360
H        -0.64343808103782       2.79641505309068       2.38600172204941
H        -3.18178020428542       1.92750570900049       1.69603079354486
H         1.99803756253095      -1.28755942332605       2.26033831808369
H         3.44281988420231      -1.28346910115553       1.23592653421824
H        -2.43640122009062      -1.59452741915812      -2.18273065033918
H        -1.30612843469606      -1.06367621142472      -0.92054145385468
H         2.25692638758921      -2.81383787178580      -0.38262781044419
H         0.84253457093325      -2.80859422796712       0.68591643438426
H         2.36680831533295      -3.52316039156313       1.23805642240307
H        -1.99047913332423      -2.86699137191049       0.56603072422321
H        -1.47505489269765      -3.54422602021831      -0.98920035134479
H        -3.20278343263553      -3.43952144472227      -0.60081090261751
C        -1.12826353263818      -1.56521203735530       3.75781743097033
C        -0.84741224424363      -0.47555833013877       2.68942201607954
O        -0.33726472147394       0.58721155067918       3.10090818453473
O        -1.17810371051689      -0.74918711081505       1.51666631536405
H        -0.52186955108384      -1.39216870737801       4.64460802252721
H        -2.18283741360689      -1.51291824639685       4.02838260731460
H        -0.92075320539450      -2.55065790514985       3.34433447505208
