29
C9H16N2O2 optimized with DFTB in AMS.
N         1.82168569496817       1.09297297010234       0.82033341019665
N         0.22650044259584       0.49805051330025      -0.46368950180032
C         1.52832049832949       0.30111382760002      -0.21390483163395
C         3.12861202770010       1.15140936682444       1.46224889804485
C        -0.50366491304451      -0.19455978419385      -1.51925937401586
C         0.71088159065153       1.78614080700391       1.23168125069796
C        -0.30439295013995       1.40806352908654       0.41416250979355
C         3.12961091798097       0.27583015206242       2.71084218179551
C        -0.52196758918296      -1.69657535401739      -1.25363220234392
H         2.20802538943118      -0.53686745731926      -0.83867518166702
H         3.86143984088100       0.78078906529433       0.73845596264444
H         3.34635030777405       2.19316502804216       1.71421466786090
H        -1.51897926243449       0.21029180368826      -1.54967188286163
H        -0.00834757224755       0.01558308889916      -2.47250992980793
H         0.73474214242826       2.48416951713945       2.05051880940148
H        -1.33677947171874       1.71078615696488       0.38244747109532
H         2.38094093688545       0.61878405491538       3.42575566609630
H         4.11222633328762       0.31820946818638       3.17872060342690
H         2.91242911702994      -0.75741747108601       2.44126285560092
H         0.49077660270904      -2.09695398673084      -1.28705572560321
H        -1.12059255789575      -2.18886948245143      -2.01922693870134
H        -0.95480229113376      -1.90427763162790      -0.27521917440531
C         4.90618844062385      -2.38607668899424      -2.15823424793404
C         4.04535015980537      -1.37093123397416      -1.39786533352312
O         4.58499188099751      -0.50899617639293      -0.70924087839817
O         2.78503710718805      -1.51443494257962      -1.55189604651343
H         5.96144542300981      -2.19431433355198      -1.97705974176594
H         4.64930327648452      -3.39105240000200      -1.82623136370270
H         4.69293746253597      -2.30913217208833      -3.22350948287690
