52
C16H33NO2 optimized with ADF in AMS.
N        -0.01685146728388       1.55407771595740      -0.18792340420260
C         0.62657713137896       2.52675821218970       0.77158794418972
C        -0.72394368330207       2.48460560746215      -1.16814607727334
C         1.01264490321260       0.70956674114584      -0.90827360743143
C        -1.03433107394288       0.69612226909700       0.54253181064390
C        -0.39774624608831       3.64228544833920       0.97555863144968
C        -1.25740696112391       3.63494233795021      -0.31512494287294
C         1.83671385858382      -0.18126515214078       0.00089626677903
C        -1.61855661211222      -0.42339563100303      -0.30625823107401
C         2.84083878485087      -0.97392064444949      -0.84159973859019
C        -2.91179599236547      -0.96168040625351       0.30573985215488
C         3.72138882539546      -1.90220839840971      -0.00860968958023
C        -3.51687295711676      -2.09866801948104      -0.51757843837594
C         4.71480812765281      -2.68858553370625      -0.86138782074750
C        -4.81483736746228      -2.63118786786075       0.08434222966375
H         1.52515849755787       2.89810016036174       0.25686912513677
H         0.92210783565672       2.00263274076449       1.68898794509553
H        -1.46008668993059       1.89789892355144      -1.73097481167114
H         0.03620054680431       2.76728425765519      -1.91893523268494
H         1.63413869121621       1.42111171742951      -1.47212621501060
H         0.44421423710539       0.16844246951326      -1.68852225050612
H        -1.82757596972340       1.38305129931405       0.87468784944318
H        -0.53446949994486       0.30128514828861       1.44086885736842
H         0.11588086674992       4.60157121961534       1.13511517189225
H        -1.01502778973933       3.45426033549055       1.86718170986370
H        -2.32268467659905       3.50494030289276      -0.07012843834630
H        -1.16912915940662       4.57853631624340      -0.87330252055843
H         1.19814449797939      -0.89342357377412       0.55283562871530
H         2.39001126479795       0.41025539650928       0.75348204199476
H        -0.88818529498685      -1.24524151234941      -0.39280030611739
H        -1.79167128091088      -0.07722155129622      -1.33955082476275
H         3.47726742580184      -0.26852004156966      -1.40594155188151
H         2.29049405596810      -1.56169210298528      -1.59779323559410
H        -3.65098053690446      -0.14179153310141       0.38304794361673
H        -2.72905428900913      -1.31708424878408       1.33824653417623
H         3.07954006415732      -2.60391054994307       0.55516401087041
H         4.26897807727476      -1.30705127897934       0.74517762836305
H        -2.78041537519036      -2.91799204255764      -0.60105296536636
H        -3.69483016612440      -1.74003214843826      -1.54665803571748
H         5.33556238354991      -3.35580505345705      -0.24356696983965
H         4.18923626064453      -3.30765020408341      -1.60571355577660
H         5.38815695214045      -2.00916145573138      -1.40800632125590
H        -5.23621887040194      -3.44567752607420      -0.52449488011739
H        -4.64816147474567      -3.02203703785904       1.10138833661770
H        -5.57376478008120      -1.83478984014089       0.15195800099474
C        -0.16035396066322       0.78819794069419      -5.55005917816569
C        -0.04712997583048       1.06316726899305      -4.04317098285331
O        -0.78925691363873       0.34810697809621      -3.28833873280640
O         0.78059947765978       1.95109064054277      -3.67983224502573
H         0.45416154494051      -0.09259524126838      -5.79767967481217
H        -1.19894604629428       0.55058559600122      -5.82252609192317
H         0.20645482324376       1.64134020189883      -6.13693793178841
