32
C8H18BF4N optimized with ADF in AMS.
N        -0.27513549136576      -0.00992227241547       0.10397645554743
C        -1.29399678424979       0.60676547941864      -0.83002483481811
C        -0.76351765388924      -1.44746017896308       0.20321176314802
C        -2.63860091506226       0.00978073961887      -0.40179553256530
C        -2.27858117592954      -1.32204677352300       0.31254606113342
C         1.11759659437686       0.06909202167726      -0.47981988461164
C        -0.33133768430722       0.68227526294018       1.43651623053248
C         2.17919466962196      -0.64614663168486       0.33861898167015
C         3.51974991385768      -0.60945608039088      -0.39173068461062
H        -1.01651959857354       0.28680126003333      -1.84593922153891
H        -1.22574756148550       1.70129626696094      -0.76371503509319
H        -0.28744635466693      -1.95380335949430       1.05441021229739
H        -0.45716500198123      -1.92356708430568      -0.74230291904258
H        -3.27606716488168      -0.14557274082846      -1.28451995218912
H        -3.17811230473955       0.69044647397396       0.27275338181965
H        -2.56929182653789      -1.31014113834573       1.37310567952806
H        -2.76523370919352      -2.19166792650362      -0.15137068242001
H         1.34718679554303       1.14287117623200      -0.58891396161742
H         1.04208383441953      -0.37055920966168      -1.48914468219148
H        -0.05930105557118       1.73428723090080       1.27450496283110
H        -1.34815518037213       0.60004300566257       1.83334715398723
H         0.34935373071028       0.18784841305565       2.14178365509256
H         2.27896147770990      -0.18878046741758       1.33419755408635
H         1.87928784625828      -1.68861003246425       0.52720270427993
H         4.28454715043228      -1.12130501235086       0.20903148847784
H         3.46256271228899      -1.11834409917638      -1.36748626450838
H         3.86161374379061       0.42383704363231      -0.56280352940522
B         0.52026468290368      -2.06319218118997       3.50089531036775
F         1.35386758326916      -0.88804646411918       3.47460398739042
F         0.88282279544899      -2.88379105600040       2.37338867416082
F        -0.83981634448458      -1.63883885162697       3.30516164111352
F         0.67084594476032      -2.75738832354415       4.69515233854787
