60
C18H39NO2 optimized with ADF in AMS.
N        -0.56833919839006       0.31024393829125      -0.24189005412996
C         0.54598717386621      -0.33565644348939       0.56708750401564
C        -1.59753948941194       0.86934278770002       0.73356585264731
C        -1.16733213580028      -0.71614362691048      -1.17814185608067
C        -0.02628813027860       1.47923663523906      -1.06016877745841
C         1.33151066169226       0.61602217647151       1.44978965249421
C        -2.88464666353963       1.38419467482486       0.11053243647939
C        -1.80550427659326      -1.93255201370262      -0.52402707261792
C         1.16451971610739       1.18257534077620      -1.95655040473041
C         2.41534109718988      -0.13551670845023       2.22224866308250
C        -3.65048333379008       2.19651612905394       1.16337383283646
C        -2.41652747879968      -2.85213571420638      -1.58637025717482
C         1.64582100819126       2.50796988741461      -2.56426184751850
C         3.22227012908123       0.82061886488805       3.09985816496825
C        -4.92253529929927       2.82108689413374       0.59809336733997
C        -3.05978700094780      -4.09597978756017      -0.97683256789736
C         2.89949375324708       2.33601438898521      -3.41563311863109
H         1.20182932785545      -0.83920738336036      -0.16048683832663
H         0.06171810108749      -1.11197028143516       1.17747682622792
H        -1.08965231787185       1.72156121992986       1.24428414126645
H        -1.80449393720836       0.06923182682839       1.46071881880867
H        -0.35447138521157      -1.02869361574029      -1.84982469638550
H        -1.91133286547792      -0.17491946080742      -1.78128862630074
H         0.26282206739462       2.27626686093566      -0.33744205234403
H        -0.87281825462531       1.83626828812446      -1.66314623448901
H         0.66167810359341       1.13131212164030       2.15638254684031
H         1.78584710315364       1.42672419677607       0.85853276994173
H        -3.52464631525828       0.56943714719291      -0.27608293479903
H        -2.66050441420123       2.05763285587958      -0.73294552327973
H        -2.59407692700357      -1.62151568842788       0.18149847068620
H        -1.05870322369066      -2.50570808657153       0.04937102281688
H         0.92838002350649       0.46641979759132      -2.76435022950576
H         1.99543377034421       0.75868361562224      -1.36781186125427
H         3.09195984660886      -0.65286024025020       1.51634287509715
H         1.95502755202260      -0.92097556109405       2.85068992609416
H        -2.97236442641013       2.97771991785504       1.54839969929598
H        -3.90237555407999       1.54436586977140       2.01964736613973
H        -1.63103766485788      -3.15539089473034      -2.30231932147142
H        -3.17043941320793      -2.29058785278079      -2.16690935843065
H         1.83242086464410       3.21315796037128      -1.73683325985496
H         0.83577013940110       2.94428396303680      -3.17680265724942
H         2.56476284526083       1.33314396728377       3.81919605669559
H         3.70034337701041       1.59861443610103       2.48465554739512
H         4.00586043528848       0.29147067987022       3.66331838631462
H        -5.62377552853918       2.05161283752068       0.23554054993133
H        -4.68907606980257       3.49032659121759      -0.24596741868185
H        -5.44395580405967       3.41986535620820       1.36022652886444
H        -3.86553025758065      -3.82240410146625      -0.27719161360183
H        -2.31899099568309      -4.69204747525651      -0.42042052007904
H        -3.49511301197540      -4.74206063749446      -1.75395313335269
H         2.72053152102885       1.66095960639061      -4.26878119768151
H         3.72451407483865       1.91604113146075      -2.81783315380691
H         3.24078524953481       3.30275361265751      -3.81644636167670
C         0.67293420949352       5.41708951233078       2.08518775168212
C         0.45930554064890       4.02353112381740       1.48116542088710
O         1.23533299861563       3.67473934524390       0.53932620295615
O        -0.49575769465700       3.34006310503491       1.97011409061695
H         0.61623637608072       5.37173138897588       3.18261257292999
H         1.63229409278698       5.84835780506605       1.76896139090313
H        -0.14007249092223       6.08021924382147       1.74885304885537
