44
C12H24F3NO3S optimized with ForceField in AMS.
N        -1.38718886149838       0.17409821760922      -0.07225748836318
C        -1.65856838949936      -1.01924043802402      -0.93216010558914
C        -2.48809237935810       0.18053565541899       0.93934656945137
C        -0.07150810600607       0.01911899613172       0.62935784914270
C        -3.02605095608065      -1.56829629180833      -0.56959206783965
C        -3.21049060270732      -1.14993923780440       0.86232643673968
C        -1.44540358980539       1.41674883179043      -0.90798033929947
C         1.16429092868742       0.02298218588297      -0.30378362139681
C        -1.17341056319259       2.72051767306034      -0.13564656094512
C         2.42843115673001      -0.35068564031086       0.48012728108780
C         3.67404571665212      -0.31437441896686      -0.41218779306116
C         4.92616250107986      -0.66547281315155       0.38735611741597
H        -1.61997317718224      -0.79438357420047      -2.02280001054914
H        -0.92624087212627      -1.84093900792082      -0.75777604390885
H        -2.13068939104924       0.35765652212446       1.97982979159149
H        -3.24640782063407       0.97038324448522       0.73121068449362
H         0.06483758648279       0.82468185221315       1.38468258295938
H        -0.07293440873660      -0.93243524198827       1.21088544361470
H        -3.80566344172520      -1.09317550053065      -1.20558039067762
H        -3.07395359202569      -2.67343174287484      -0.68180837418198
H        -2.72163716854558      -1.88599787310820       1.53850178398048
H        -4.28629270143123      -1.05473677034068       1.12631957097262
H        -2.44970192349563       1.50611345505660      -1.38323646028945
H        -0.72465676082658       1.35915069233421      -1.75286768695412
H         1.30793167191581       1.03512444845039      -0.73695122709296
H         1.03223204882113      -0.69652647699874      -1.13869844944545
H        -1.82841180891082       2.81581766188889       0.75406238975046
H        -0.11335714749960       2.78511165930669       0.18266586332021
H        -1.37338130542160       3.58533479298741      -0.80255048222199
H         2.31134987774410      -1.37336278353330       0.90178064023866
H         2.56042862655378       0.36536536860520       1.32126514490922
H         3.56192386519125      -1.04128357569213      -1.24621851963573
H         3.79694301299327       0.70228402750255      -0.84480052860606
H         5.82141207012294      -0.56632206452250      -0.25930520434503
H         5.04096577058225       0.02356591680447       1.25099081424033
H         4.86592347031951      -1.71113318968242       0.75772002781385
S         8.47435337193445      -1.74807531279983      -3.03768139105763
O         7.36499286653405      -1.83827402578657      -1.98092598622906
O         8.47871796281391      -0.25914374119988      -3.41379504417556
O         7.83968066232963      -2.41797008189844      -4.26500704801738
C        10.07674656776682      -2.42479408806138      -2.52783807914225
F         9.92417450304566      -3.75041028661536      -2.17188200150355
F        10.55575468135298      -1.71078069931071      -1.44705097108474
F        10.97155985250446      -2.32962801432168      -3.57534238610944
