54
C14H20F18NP optimized with ADF in AMS.
N        -0.58105130300951      -1.36521179409458      -0.12850736300565
C        -2.10476979413295      -1.39113337851567      -0.11737203830578
C        -0.03502998446603      -1.66479100107882      -1.52601405954361
C        -0.06419742030998      -2.43651731487251       0.82961873362444
C        -0.11700461955450       0.01840543300434       0.28892710904169
C        -2.73334976991116      -2.69290710228043      -0.56284537873490
C        -0.59695476077462      -0.80786421188252      -2.64148510038017
C         1.42011076537475      -2.37366531667226       1.12634635571694
C        -0.47403598246233       0.43375905067596       1.70390069666109
H        -2.39459259912624      -1.15942797035391       0.91668786922932
H        -2.42130187664658      -0.55117851970820      -0.75328547287775
H         1.05297396231307      -1.53599970084571      -1.44898894209699
H        -0.23167884109401      -2.72673454277007      -1.71626601137629
H        -0.65826575358811      -2.33356302694429       1.74977481494454
H        -0.31513836508894      -3.39784328817184       0.36518615337399
H         0.97206291220920       0.02938892279541       0.14181547664995
H        -0.55986790158605       0.71500786519129      -0.43548378749465
H        -3.82609969730937      -2.56033711276831      -0.53465178248308
H        -2.45761277921938      -2.98494566328732      -1.58343551049773
H        -2.49235835031363      -3.53245189317564       0.10046297296361
H        -0.07709674034893      -1.11062042707592      -3.56281743404417
H        -1.66801994253009      -0.98541182744139      -2.80924155940802
H        -0.41985217066225       0.26829960146491      -2.50460190919437
H         1.65752882841651      -3.23906560547603       1.76266214340501
H         2.03477307049645      -2.48071490015882       0.22358999367769
H         1.71444302637979      -1.46495602650380       1.66937148367607
H        -0.03595368189323       1.42851065440496       1.87937382083543
H        -1.55694026234416       0.52603478051198       1.86080753633156
H        -0.05975690601816      -0.24378276681630       2.46247313547878
P        -0.52150584560957      -6.26378260392145      -2.31492025141266
F        -1.82208994196242      -6.57054034690641      -3.29271438024430
F        -0.88981789069092      -4.60411691855955      -2.25759694843759
F        -0.09825139939322      -7.86190558179288      -2.30326398639521
C        -1.85154318311199      -6.49456307152185      -0.86858997768071
C         0.52399168491354      -5.92528182133407      -4.04101103308130
C         1.13712783449735      -5.93306792866302      -1.16027379568829
C        -2.41046718702651      -7.91941207386985      -0.56498864747917
C         1.35531567039305      -4.62455010492152      -4.32842442443401
C         1.42049094511118      -6.46717268746546       0.29030436407511
F        -2.97426728826470      -5.74444174370452      -1.16636259928684
F        -1.39690164057370      -5.99595476599909       0.34618992144107
F        -0.38667261229512      -5.89326354149241      -5.07891767312603
F         1.37464811482593      -6.97027512174317      -4.30977108502353
F         1.38969099659690      -4.56207625356016      -1.05117027397653
F         2.17490823218672      -6.46916390945752      -1.88474677496903
F        -3.38615490701607      -7.81628699924503       0.39055683625133
F        -1.46233630173476      -8.75036723052328      -0.08186682389067
F        -2.96468824639092      -8.47906765966391      -1.65922559787267
F         1.81773419244685      -4.67392157910082      -5.60831976646099
F         0.57625762454365      -3.50699947143393      -4.22732504700588
F         2.43054260275865      -4.44519920446449      -3.52887828906456
F         0.90872681233119      -5.65180787324274       1.25796300570088
F         2.76820289668601      -6.48839823225859       0.50161461174971
F         0.95237735937933      -7.71213111320881       0.47783122624491
