40
C10H22F6NP optimized with ADF in AMS.
N        -0.29010120620102       0.09971526999391      -0.45051842698778
C        -0.01018653080938       0.17264697779582      -1.94481735115917
C        -1.12097772113648      -1.17313970936465      -0.29867711978996
C         0.98421856833511      -0.02512419497241       0.36648599421702
C        -1.30378475065006      -0.29346034335723      -2.59167449995010
C        -1.83985683348683      -1.38749631727943      -1.64116871259251
C        -1.09591723011950       1.27983006000607      -0.01791803142917
C         2.00432126317756       1.07406839451954       0.13997453579611
C         3.26794192028372       0.75296785548721       0.94568076487115
C         4.40050959739691       1.74080924324071       0.67485249836898
C         5.62837629210886       1.47021026068289       1.54078178985535
H         0.81454338708235      -0.52863796934801      -2.13534080774274
H         0.29041845110355       1.19728488583457      -2.19917914252927
H        -1.78629883226109      -1.03984781194815       0.56550513160514
H        -0.40714579131983      -1.98311302613148      -0.10559621034329
H         1.42446347068058      -0.99202961332654       0.08699476514045
H         0.66291708309453      -0.07052424827886       1.42043995625548
H        -1.10155852823812      -0.68593923485190      -3.59848992185771
H        -2.02473993529161       0.53351333129358      -2.69759478453797
H        -2.93351444353286      -1.33776363203143      -1.53881465627114
H        -1.57284516219793      -2.38439441860488      -2.01935941759427
H        -0.52714261509949       2.19657003725834      -0.21219586076506
H        -2.03710224761325       1.29796398793418      -0.57992167335206
H        -1.30674150174804       1.18904893767111       1.05523366321211
H         2.27624297212850       1.10639515590431      -0.92693323274456
H         1.61877920487788       2.06593640029396       0.43511091767262
H         3.59966699548183      -0.26689505965709       0.68433520173271
H         3.02758108012080       0.75063075779985       2.02557469390318
H         4.04117236820211       2.77224442654103       0.84766764771576
H         4.67617658127979       1.67484823899682      -0.39297583897733
H         6.43982806298527       2.18073256820305       1.31984384853586
H         6.01271611981792       0.45324489276526       1.36759379793469
H         5.38338642353665       1.56096011943348       2.61116738761497
P         2.77550754805759      -2.87562230998623      -1.82639193845432
F         2.84605629076094      -2.66512318346239      -0.16915806509277
F         1.08692639897407      -2.72298697895351      -1.71061664122948
F         2.85245864788019      -1.19876458013430      -1.99003754126123
F         2.62610600081014      -3.01009462822335      -3.45439123387689
F         4.40382708958443      -2.96187446411249      -1.90811920991880
F         2.63469565234422      -4.49173646753137      -1.63090819337401
