34
C8H18F6NP optimized with ADF in AMS.
N        -0.43180184970047       0.31995476023413      -0.70542420602333
C         0.87753224762880      -0.43566147921778      -0.64951638516962
C        -0.38967449607933       1.12229153827635       0.58837362254093
C         1.03442662422951      -0.85883187374560       0.81174346481863
C         0.20312499368610       0.16949614969900       1.62224065418304
C        -1.61418989246367      -0.64048013897523      -0.67580057497634
C        -0.47426719626037       1.22756363617942      -1.91165298370325
C        -1.77845414553856      -1.47241177718503      -1.92929533448146
C        -1.72907129673022       2.06894035631705      -2.00745567414456
H         1.65673612822134       0.28313007073501      -0.94496080320829
H         0.86014820164118      -1.25798149087301      -1.37533208075744
H        -1.39276144519717       1.48451216292964       0.84083984585350
H         0.28297011826492       1.96982451687317       0.38379485145539
H         2.09884326729173      -0.85390806096014       1.08792739986247
H         0.66379054829318      -1.88153953284909       0.96999274514816
H        -0.60553700856720      -0.30959914851888       2.19025376616773
H         0.81800445787163       0.73232876787085       2.33818798218284
H        -1.46641004154164      -1.27337574439758       0.20733328108490
H        -2.49943094667570      -0.02712527620366      -0.46519535680857
H         0.41973547399332       1.86453046054595      -1.82594928278461
H        -0.34454917768663       0.58382424497243      -2.79449580032375
H        -2.62516037060506      -2.15491435065685      -1.75747441998922
H        -2.02938051351563      -0.86770278961113      -2.81192264108843
H        -0.90247067011763      -2.09601078542675      -2.16194867056941
H        -2.63399517231521       1.46487187981332      -2.14906355160628
H        -1.88270294035660       2.68757112348294      -1.11357236989113
H        -1.62654554134313       2.73696158523910      -2.87572044935727
P        -4.05534640422421       1.11223021807844       2.01509580205067
F        -5.24348894157079       0.15408260935014       1.41011068552401
F        -3.59825187776789       1.49759168264023       0.42179632877470
F        -5.04613017691306       2.41299627671221       2.02727777725884
F        -2.78336288903318       2.05221564018920       2.54159122417262
F        -4.44295851290244       0.72369972191396       3.55301073462228
F        -2.99650065281593      -0.19687672803179       1.94701572458221
