48
C12H26F2N2O4S2 optimized with ForceField in AMS.
N        -0.71356236765986       0.31297097161700      -0.15816522236150
C        -1.27681352603229      -0.45423207934493      -1.31675581468580
C        -1.84346700914015       0.72443724076091       0.73842378070325
C         0.27741650031683      -0.50198176089778       0.62928719617968
C        -0.08211948181554       1.55060302922374      -0.73270456658762
C        -2.12989835590206      -1.66836831257085      -0.91236784467122
C        -2.73911711807527      -0.44518856931254       1.19685027235115
C        -3.26954451275860      -1.24011632450558       0.00718924208124
C         1.55933676541240      -0.92567770362328      -0.12887918295221
C         0.64893748714655       2.46661139996303       0.27951010731303
C         2.48228906288035      -1.73486060682664       0.79257029150648
C         1.21119265939915       3.69975910145570      -0.42048533602867
C         3.75942576198265      -2.15578097166435       0.07101447255641
H        -0.47929499561707      -0.79223234872679      -2.01062507762931
H        -1.93260473108887       0.20777411649372      -1.93010704929409
H        -2.49973161846100       1.46535634998865       0.22571771237356
H        -1.46385516090456       1.21818964762021       1.65887828659659
H        -0.18866740113756      -1.43074688695129       1.01152449455099
H         0.58083235495746       0.04833116384898       1.54721124370969
H        -0.85816581227515       2.17061667347244      -1.24009435838929
H         0.63640417838331       1.28156675734499      -1.53935814856938
H        -1.51107325172099      -2.45266476579181      -0.43000234173995
H        -2.56449705318607      -2.12211900095630      -1.82931354858113
H        -3.60195219994511      -0.03517029897622       1.76488411820670
H        -2.19281385446158      -1.11607964300264       1.89198549469076
H        -3.99222214798653      -0.61512276890808      -0.56274029346686
H        -3.80832015772842      -2.14089728759711       0.37337977110320
H         2.11928746394315      -0.03692871615712      -0.48498748325363
H         1.30168475102212      -1.56194738550561      -0.99967480945028
H        -0.04230622948347       2.81474777090783       1.07296556279149
H         1.50071451117672       1.93734812180062       0.75303204176335
H         1.95355041010151      -2.64784373920496       1.14475156285461
H         2.75731202809096      -1.12416549185067       1.68046070942923
H         1.72768289970641       4.34340565692803       0.32127070242060
H         1.94064850024829       3.39597270311596      -1.20120926521804
H         0.39463613317360       4.28910712198461      -0.88970009756732
H         4.32394637101220      -1.26078462709100      -0.26744150753454
H         3.51482545463536      -2.79097502142287      -0.80704790034885
H         4.40159816114633      -2.73973595922267       0.76390901852282
N         4.35641157867103       7.66004230197059      -1.04671120351248
S         3.06943128574634       8.44131398593562      -0.40509195653022
S         4.46707482870229       6.02815510090158      -1.00778067335144
F         3.19548648001744       8.43228893980639       1.26438269989861
F         3.39979657708752       5.38047290623632      -2.12281048423621
O         3.04953822810858       9.86121424320889      -0.89461168636377
O         1.79556618065524       7.74923605320037      -0.80230036403226
O         4.11720580461982       5.52358542762314       0.36388347070546
O         5.86604812263653       5.60938832940175      -1.35842956255282
