37
C9H20F3NO3S optimized with ForceField in AMS.
N         0.01946644401337      -0.00766330949891      -0.01954257175773
C        -0.82263586178855      -0.30420455258613       1.19151647566097
C        -0.83579577401423       0.26042931195847      -1.22835301688931
C         0.88600426848247      -1.20549446123303      -0.30348830223894
C         0.84884185813416       1.21592209847354       0.26248703279087
C        -1.85976769828763      -1.43256330011663       1.02522614640719
C        -1.90047585915893       1.36461223888678      -1.06833348154188
C         1.94902259949192      -1.02257280268787      -1.40453430053644
C         1.90904466368322       1.06801669070824       1.37256971758811
H        -0.17972991839097      -0.60502021441978       2.04652451301738
H        -1.36034424768903       0.60717021481052       1.53520752970550
H        -0.20464409413665       0.57102770686452      -2.08851316307651
H        -1.35340486988239      -0.66657111567330      -1.56046911140915
H         1.40331018486045      -1.54879453117111       0.61959802438618
H         0.26510514345970      -2.06685380241528      -0.62988818820585
H         1.36281148760228       1.56717805742185      -0.65938932067180
H         0.19976419354351       2.06118565646325       0.57709143561249
H        -2.37421528908654      -1.58637563714507       1.99434810337692
H        -2.63584316668488      -1.17855733988006       0.27651454548353
H        -1.38674115307614      -2.39897516008150       0.76572525493151
H        -2.47086147568579       1.44804156840426      -2.01749685199518
H        -2.63177040039169       1.13297947531404      -0.26957646320734
H        -1.43974070562731       2.35485848620115      -0.88165600367792
H         2.53171683137216      -1.96369406168258      -1.49395876310483
H         1.48502277041141      -0.83384258002858      -2.39278400019705
H         2.66981029643716      -0.21657972990686      -1.16643882130199
H         2.47485151356560       2.02011513771411       1.45265616100543
H         1.44208621244589       0.88449057313129       2.36063763051472
H         2.64564401629563       0.27128454954298       1.15178030053349
S        -4.89595263249318      -0.44386399949721       3.84875836074162
O        -3.45972501173650      -0.78226462389504       4.27370458000292
O        -4.87334497405139      -0.65315679107960       2.32776287156485
O        -4.95060201168674       1.08407066956727       3.98988424225001
C        -6.19385136483906      -1.35064905382960       4.73166437165723
F        -6.09979560537337      -1.08675953205161       6.08452266283716
F        -6.03689418320866      -2.70611247490255       4.51410985633979
F        -7.43180166620930      -0.94937651467997       4.26779602920405
