29
C7H16BF4N optimized with DFTB in AMS.
N         0.84945931537156      -0.23318395100031      -0.32059722643562
C        -0.32501396727931      -1.09013674241453       0.02318435153585
C         0.50246876090801       1.10180420027897       0.27313498257529
C        -1.54260953126084      -0.17637084150287      -0.09965364288670
C        -1.00173964236369       1.25186699749945       0.07854501331124
C         2.12807866020896      -0.75093781217053       0.27342866006170
C         0.99105766627150      -0.09295121184199      -1.79483759828508
C         2.44649458341709      -2.18599438701555      -0.11051238995859
H        -0.19327089991863      -1.43126117866238       1.05250390598324
H        -0.36349753759671      -1.95112386037284      -0.64421789791787
H         1.09429234777560       1.87149618652983      -0.22069730403110
H         0.77238660614897       1.07471249402812       1.32936028400175
H        -2.27902106155505      -0.42802892078050       0.66540592449280
H        -2.01630192927568      -0.29342268554702      -1.07662084915329
H        -1.22480662456203       1.85963571411699      -0.80071973318284
H        -1.44542873216869       1.74079437983202       0.94723767579487
H         2.92417550862630      -0.08455108273847      -0.06384788855174
H         2.03611309483039      -0.66026136395749       1.35779393127539
H         1.13945475254234      -1.07464662729684      -2.23908161315900
H         0.08929062290039       0.36008195331247      -2.19954589900705
H         1.85131792361627       0.54730200672785      -1.99149412636595
H         3.39153092994179      -2.44677233898378       0.36482354761009
H         1.68343969366742      -2.88248515112554       0.23642598602907
H         2.56738431393445      -2.29851686580645      -1.18696763948096
B         3.79754758310353       2.03942737425347      -0.00888309653224
F         4.62946293993856       0.92295041894328      -0.15108412801912
F         4.48298455510341       3.21379244524934       0.06656457563604
F         2.97943619524191       1.83393858097581       1.13656019606698
F         2.90140863753226       2.03988450066952      -1.13415123730716
