68
C18H36F6N2O4S2 optimized with ForceField in AMS.
N         0.00009243436324       0.00034488383652       0.00156984696154
C         0.84487846059819      -1.02869978040320       0.70597219400049
C        -0.87276666501443       0.68184581519431       1.02258428560602
C        -0.82372792237681      -0.69559630862529      -1.04980514123335
C         0.85206506845027       1.04391275447765      -0.67218999937226
C         1.89390172396721      -0.47846403140096       1.70680593417142
C        -1.93961158384238       1.65905108018033       0.46365487512297
C        -1.89231021091040      -1.69157239811872      -0.52912885261458
C         1.93968865592906       0.51319894934143      -1.64231389583014
C         2.66972561919847      -1.62975658223796       2.36045726224005
C        -2.74472616689902       2.28762286426666       1.60935489137011
C        -2.64344893198597      -2.33495103939077      -1.70295591402025
C         2.72262746996466       1.67943283006961      -2.26116460964945
C         3.71976435441192      -1.10633577874993       3.33642319178874
C        -3.79280699849959       3.26355688495611       1.08244375812774
C        -3.69367843768798      -3.32793406760210      -1.21376627820894
C         3.78840373872115       1.18055895412599      -3.23266508313153
H         1.37123956010072      -1.67317938535816      -0.03288000716223
H         0.19749029434212      -1.71716262806901       1.29030641324043
H        -0.24705506261148       1.27993946472145       1.71900515884381
H        -1.38788375823307      -0.07081033700730       1.66019161356898
H        -0.16322960770426      -1.28252467812185      -1.72325190211844
H        -1.32861261660765       0.04838544447026      -1.70549719725141
H         1.34492364671919       1.69353875466651       0.08503315903831
H         0.21365224251645       1.72498097037608      -1.27443733014089
H         1.39779457536932       0.09550502568743       2.51517167366101
H         2.62235484309825       0.18332268488849       1.19660701167339
H        -2.64731749694412       1.13448123493706      -0.20945948168007
H        -1.45651964708709       2.48177651184656      -0.10082152511812
H        -2.63335017090957      -1.17943033106133       0.11714398375730
H        -1.41511871055689      -2.50504002756453       0.05354289288883
H         1.47623526483271      -0.05955640203888      -2.47061695767411
H         2.65870531861920      -0.14516421254291      -1.11444743967711
H         3.17831087008473      -2.23420624086721       1.57818797058682
H         1.96499139049438      -2.29060879954875       2.91146170827142
H        -2.05968907028888       2.83610699542185       2.29252033059849
H        -3.25674663600617       1.49024303756607       2.19080296440650
H        -1.92425891357881      -2.87240986417906      -2.35928597087077
H        -3.14694593126775      -1.54706251791586      -2.30446681836037
H         3.21635151873261       2.26899619977075      -1.45823083453482
H         2.02577194016016       2.34922089306577      -2.81126564900502
H         3.24245799910365      -0.48529229574681       4.12356438652399
H         4.47362172237934      -0.49318560383487       2.79933722110347
H         4.23473170707860      -1.96244546490813       3.82139701062236
H        -4.51193813211139       2.73673462414884       0.41988165936254
H        -3.30507139517286       4.08568860914298       0.51641996569963
H        -4.35152844638688       3.70359145429328       1.93526322441622
H        -4.44566640198625      -2.81261560432204      -0.57923913590115
H        -3.21339589231067      -4.14105629583846      -0.62870488235706
H        -4.21283263483334      -3.77817468262599      -2.08604618483858
H         3.31871188106935       0.60703278730842      -4.06008703065753
H         4.51922323192310       0.53238146017377      -2.70405778820736
H         4.33018199256084       2.04770427277756      -3.66586520762698
N         1.37363606718462      -1.55488483687332       8.28905293321800
S         0.94667710485018      -2.39494815970277       6.94777664932847
S         1.31561553713018      -2.19913621179853       9.79538936687825
C        -0.76791341708092      -2.08531315313651       6.58115710008251
C         2.94616507353976      -2.74358019245371      10.26052801160390
O         1.77737292074247      -1.92688626049273       5.78867833161933
O         1.15991538748092      -3.86886282036610       7.15327478310815
O         0.36503901674671      -3.36304607182963       9.84171400300200
O         0.86424627807179      -1.14441865567228      10.76562813982746
F        -1.12444143885723      -2.76031349546563       5.42924679995153
F        -0.96246645749417      -0.72980419338995       6.39535096819647
F        -1.55455908065276      -2.52119908781364       7.62999071012621
F         2.90478973153824      -3.30607174037744      11.52206536110525
F         3.80880338112968      -1.66399021064800      10.26915842850747
F         3.39884164579532      -3.68359261761143       9.35456828673495
