49
C13H28F6NP optimized with ForceField in AMS.
N        -1.54247117811221       0.10315780918822      -0.08200166466321
C        -2.55548478971581       0.49968143511352      -1.11458432841173
C        -1.78411103123289      -1.32400665909507       0.30943640880415
C        -0.19767447480533       0.19699472775360      -0.74736403661529
C        -1.61856043164246       0.97956221914414       1.13913570359634
C        -4.01457965870400       0.28108646707396      -0.68184098603882
C        -3.22771312644027      -1.61149658609309       0.76563533300005
C        -4.24127559744277      -1.17356678800879      -0.28615397257383
C         1.02497744110783      -0.12421992463453       0.14836521128298
C        -1.26620056254634       2.46228779498433       0.92013692131687
C         2.32793512172689       0.03775063731987      -0.64644647175459
C         3.55279641953004      -0.30076359933205       0.21194637565410
C         4.84967932666080      -0.10639322336871      -0.58317132873952
C         6.07454891908023      -0.46406903929360       0.25360915209651
H        -2.40467510532594      -0.09526308833645      -2.04658822667107
H        -2.42993095736093       1.55861192198605      -1.42262307755108
H        -1.11711432489346      -1.62602149287007       1.14558709107590
H        -1.55956659531393      -2.00611215637104      -0.54355324704033
H        -0.05477026784168       1.20931929219869      -1.18785983777678
H        -0.15844423075213      -0.49871709431290      -1.61841927084694
H        -2.63097033251544       0.96087120442170       1.58575894038762
H        -0.95926625452277       0.58643659329798       1.94309269797773
H        -4.68411062367146       0.52543789010209      -1.53454130351669
H        -4.29414997663702       0.96079128009953       0.14839857197026
H        -3.44117968571675      -1.11004932590378       1.73147058956061
H        -3.34219834237171      -2.70414107919575       0.93630912418558
H        -5.26951901223471      -1.29152500585451       0.11834157342581
H        -4.14617483084553      -1.82259403387353      -1.18493406452752
H         1.06721613382287       0.56177474913485       1.01802647879304
H         0.96854050383347      -1.16887820354517       0.51662205618428
H        -0.22328477038620       2.59460883264075       0.57149645598223
H        -1.96884845358602       2.95065379187254       0.21761511668489
H        -1.35214339299152       2.99740854652907       1.88967431696597
H         2.40939393580592       1.08810511830992      -1.00388588419407
H         2.30504700832514      -0.63558703285049      -1.53152980809054
H         3.48228898482249      -1.35812699509549       0.55036785693197
H         3.56932294572028       0.35821921424619       1.10806627891855
H         4.83577493224965      -0.75094315579915      -1.48883768995259
H         4.93531740363216       0.95383892668071      -0.90647671791872
H         6.03393524563923      -1.53033190292720       0.56306127756752
H         6.99381815043145      -0.30546418374949      -0.34981272537506
H         6.12839649845929       0.18008536601825       1.15717511177430
P        -2.79146228870306      -2.68642055581155       4.97193386996836
F        -3.79144461218530      -1.85681428398390       6.09589393717834
F        -2.14642565161067      -1.17902891134328       4.45780031378937
F        -1.61140002160312      -2.85257281783595       6.20956696344447
F        -1.75663938477842      -3.42313374453553       3.81508449754546
F        -3.39676487673684      -4.22700785058851       5.43197800826435
F        -4.07835431092104      -2.60122423430635       3.83794656913081
