68
C18H36F6N2O4S2 optimized with ForceField in AMS.
N         0.00072867729180       0.00021542054486       0.00133974361287
C         0.84448158115815      -1.02989588252433       0.70530780617052
C        -0.87138201301677       0.68294522736854       1.02225792077729
C        -0.82376205293804      -0.69504463769231      -1.04994537229388
C         0.85342159362119       1.04301554051740      -0.67207230012471
C         1.89280962143536      -0.48291059559566       1.70834734510769
C        -1.93649873370544       1.66211221281108       0.46375148661838
C        -1.89214203816040      -1.69087581830601      -0.52921808709312
C         1.93904367402977       0.51304093817542      -1.64402844386198
C         2.65875603793522      -1.64005458136682       2.36364429656001
C        -2.73736587202008       2.29158591270603       1.61156881994691
C        -2.64086267525582      -2.33372338304879      -1.70434239383692
C         2.71478294011670       1.68339488261697      -2.26367767405916
C         3.69606738010282      -1.12855918065755       3.35877960371758
C        -3.78658845327262       3.26842412995058       1.08888583559926
C        -3.69377473462007      -3.32512849431224      -1.21798958181606
C         3.78247907736807       1.19233186306244      -3.23527196576252
H         1.37135789553399      -1.67424115403040      -0.03341799538050
H         0.19625862451820      -1.71860996150330       1.28829512596575
H        -0.24544646339488       1.28008661478617       1.71929623869656
H        -1.38791083568514      -0.06868842875649       1.65987486524662
H        -0.16427277113216      -1.28219441087343      -1.72420347952007
H        -1.32877024391657       0.04902306208591      -1.70546329935946
H         1.34835371729349       1.69102901350815       0.08524954155501
H         0.21570679016150       1.72595195926071      -1.27290471024734
H         1.39790291188395       0.09469784081946       2.51492147896850
H         2.62601437003140       0.17440191634263       1.19884437708216
H        -2.64606040869208       1.13835391084112      -0.20813371259259
H        -1.45302152856589       2.48434052907385      -0.10132813606389
H        -2.63361207347635      -1.17821930827107       0.11625483168894
H        -1.41578135195301      -2.50477944184098       0.05370513980538
H         1.47590519326125      -0.06150870642999      -2.47142681065035
H         2.66053302940379      -0.14298014138558      -1.11644638995368
H         3.17480635480219      -2.23912283854779       1.58199841625709
H         1.94621446027415      -2.30341200819435       2.90147624369133
H        -2.04899868815801       2.83909450182630       2.29223322579896
H        -3.24718731791358       1.49416044379834       2.19484117052932
H        -1.91994128492470      -2.87193652410258      -2.35821864671962
H        -3.14076255609970      -1.54485755935328      -2.30752282663901
H         3.20577790637910       2.27461011110628      -1.46026102651769
H         2.01371993841614       2.34944592234706      -2.81262390101827
H         3.20269139731071      -0.54677125370132       4.16636751058942
H         4.44041423987081      -0.48517215849746       2.84352724904409
H         4.22665926991304      -1.99006627623252       3.81623783543145
H        -4.50762702786326       2.74287715935452       0.42751571622602
H        -3.30032931475603       4.09148652707499       0.52304879177395
H        -4.34284641078273       3.70695373522471       1.94404738305183
H        -4.44580515471329      -2.80917253844400      -0.58413956710532
H        -3.21613101000565      -4.13989503721510      -0.63312680729448
H        -4.21225532421696      -3.77314914840522      -2.09172898904896
H         3.31988227521406       0.60634790456612      -4.05803487612678
H         4.51970320335016       0.56117117364040      -2.70012382835704
H         4.31599231168037       2.06189128366373      -3.67300853446301
N         5.90685374053713      -4.88727898524234      -2.00494982929259
S         6.05408329575281      -6.13192699352435      -3.06175030115494
S         6.77978908926726      -3.50524889083633      -2.13205076459406
C         7.26208279729422      -7.28448913803921      -2.44136515079726
C         5.77927478437871      -2.25743794052099      -2.91166530124781
O         4.73209599909667      -6.83461711622261      -3.18359726510071
O         6.48406714092151      -5.63313795908665      -4.41357859288595
O         8.02526114592059      -3.72986056474213      -2.94409798203090
O         7.15569757180875      -3.03085435944650      -0.75728540093557
F         7.37344180507933      -8.35207749740253      -3.31174985184286
F         6.86496176031968      -7.74534177637119      -1.20054444276873
F         8.48830288248212      -6.65854398845129      -2.32556826331401
F         6.51334688126835      -1.09374784299920      -3.04058627323677
F         4.66108806720613      -2.01512993645030      -2.13641478540076
F         5.38363408594858      -2.69020223584957      -4.16266164320360
