34
C8H15F2N3O4S2 optimized with DFTB in AMS.
H         1.27343010138011       0.82993832875225      -4.24182731270461
H        -0.01531106520860      -0.40488592778118      -4.24816022384615
H         1.68828995252398      -0.89144885617671      -4.45209791716882
C         1.01547301421800      -0.19027760091831      -3.96224326748423
H         2.04086061934776      -1.67600886845049       0.29940963642134
H         2.04220572706808      -2.27870228708102      -2.40709215428983
H         0.44986480658409       1.58471056577158      -1.84264691090907
N         1.15958662401232      -0.32987255778927      -2.52208987092707
C         0.84262610521112       0.60467956382206      -1.62685179875880
N         1.15290797766985       0.13609861213919      -0.42280333162063
C         1.69492510677741      -1.11364029532857      -0.54979100941116
C         1.69979581427373      -1.40788823176195      -1.87612368094797
C         0.99246263645730       0.85967977322422       0.83416415606246
H         1.96564971931641       0.88910144986169       1.33136948068955
H         0.69043035490151       1.87886486330107       0.58945206521018
C        -0.05909246486377       0.17935479041933       1.71120452467298
H         0.25781272485423      -0.84261096097322       1.94285087849884
H        -1.00370247462520       0.12221061945120       1.16084208621500
C        -0.25686526324581       0.97130336515591       3.00787439039357
H         0.69650736239766       1.03379061885020       3.54229333581938
H        -0.57164717195410       1.99068783300419       2.76373697223524
C        -1.30365249053841       0.31374385002671       3.90424760224247
H        -0.99720936343033      -0.69818223730052       4.17286899049805
H        -2.26630205022104       0.26168221743299       3.39395666226699
H        -1.42557210953701       0.89442816204868       4.81831716118653
N         3.23386227947851       4.10265658596505      -1.78938291439250
S         2.16836250717763       4.13198635652183      -0.61353007690327
S         3.34758309380339       2.74476954518185      -2.58813690442257
F         2.80400858013572       3.14252063392299       0.52621383266445
F         1.91653507628820       2.66356601470816      -3.42683968865682
O         2.18184309794138       5.41926530994062      -0.01430608588672
O         0.89681221433635       3.51178818458476      -0.88637111307010
O         3.30875838314767       1.52844823462229      -1.82277555530009
O         4.32815255142182       2.88097320095241      -3.60776804007659
