57
C15H32F2N2O4S2 optimized with ForceField in AMS.
N        -1.10343154801131       0.81668318814365      -0.18498802703148
C        -1.58260732849410       1.85824846625036       0.78276905833674
C        -2.08449379518123       0.72455463671414      -1.31561171424290
C         0.19683236621401       1.28110319501506      -0.78205966428197
C        -0.94723195748848      -0.49903820433257       0.53028297085567
C        -3.02613739570103       1.63934086065859       1.27843753253373
C        -3.53101143760792       0.44819214416000      -0.87223535872517
C        -4.00104378845563       1.51514443012836       0.11153235358221
C         1.39380837322649       1.36546539823633       0.19699110274252
C        -0.35729110373999      -1.65724101768712      -0.31154384304438
C         2.64792726862317       1.88047354635554      -0.52042692751422
C        -0.21533806259738      -2.92624173933640       0.53971264543119
C         3.84716035177771       1.91927206598161       0.43348538882412
C         0.36778250130010      -4.08107933796647      -0.28301565618690
C         5.09611713932001       2.43535512146034      -0.27236782866273
C         0.48926729821812      -5.34936763824265       0.55663974606760
H        -1.53986087314080       2.87094959269780       0.31908419128169
H        -0.93556353445946       1.89301503835923       1.68526548854195
H        -1.78376193006684      -0.04512571245055      -2.05624372929981
H        -2.10112910782471       1.68343825751115      -1.88535790865709
H         0.06576300929394       2.29140958501919      -1.23531841116320
H         0.48837723308673       0.62706182791332      -1.63399065856786
H        -1.91900887163096      -0.85294380671669       0.92533559897922
H        -0.31762883026441      -0.36839615747966       1.43767042235716
H        -3.32665311738075       2.50812868591556       1.90355275292455
H        -3.09165699337735       0.74254220672164       1.92907966900337
H        -3.63139828956814      -0.56360150683348      -0.42831846303724
H        -4.19177600880783       0.47167269803181      -1.76588917192531
H        -4.07958931645196       2.49401120803445      -0.41126699980932
H        -5.00912245287160       1.24881517322525       0.49577659016106
H         1.16668031462995       2.05891257754260       1.03182975547973
H         1.62702973055985       0.36511504896256       0.61508641524004
H        -1.02373803380561      -1.89161982249488      -1.16610996412829
H         0.64661912595951      -1.39308313578878      -0.70082848579120
H         2.45475195544627       2.90377587602354      -0.91188358767399
H         2.88345554366380       1.21233154980115      -1.37824722182181
H         0.45368926538596      -2.71790344830734       1.40391499779536
H        -1.21456353869610      -3.22122504276653       0.92991905352105
H         4.05123507585689       0.89701949147572       0.82058149202378
H         3.62106295824707       2.58369663258826       1.29586980601180
H         1.37571332789079      -3.80109482387981      -0.65996612770987
H        -0.28883647827436      -4.28979340368997      -1.15571695527873
H         5.95000856094248       2.43114294118541       0.43736618475735
H         5.34729532647786       1.78402981183244      -1.13623118177539
H         4.93602462315693       3.47433706343574      -0.63109641588998
H         0.91589461675100      -6.16619117505258      -0.06280277693321
H         1.15961646105979      -5.17454303640118       1.42500079262360
H        -0.51045791086362      -5.66666445726201       0.92270919851353
N         9.98464748559193       2.21426387188601      -2.38184036908655
S        11.19299264148836       3.31680177878107      -2.36282445795157
S         8.92551379575501       2.09482533913363      -1.14167925880805
F        12.42462744083357       2.76397048127999      -1.37364535655153
F         8.01932146850721       3.49941254995853      -1.05467116490533
O        11.72153588814676       3.50557653878692      -3.75627378021708
O        10.68984749935975       4.62884909255190      -1.82868281745327
O         9.67125398417162       1.91738092421980       0.15112345167237
O         8.01812358841894       0.91906619411004      -1.36724366293595
