54
C16H29F3N2O3S optimized with DFTB in AMS.
N         2.89464747954031       1.64446695373302      -0.42876077761779
N         3.08720013173366      -0.42439714159318       0.13608615371864
C         1.53225802003792       3.60307167391225      -1.07824492029525
C         2.75996714880360       3.09879513788894      -0.31688053050981
C         1.86369505927721      -1.75472736560782       1.80228072870508
C         3.13974031992390      -1.62762977920919       0.96306812318613
C         0.23268471863730       2.97041836025282      -0.57128353839939
C         0.59584116692140      -1.74393628322432       0.94389970058473
C        -0.95910077369294       3.33845670214877      -1.45711605278202
C        -0.65728649591375      -1.69844348566031       1.82293877623080
C         3.10358693551078       0.82555412075328       0.59782529794736
C         2.72773476099078       0.90377308367774      -1.56904814164826
C         2.84092451688626      -0.40146232721837      -1.21084217617945
C        -2.24031777307123       2.69037444710480      -0.92201860817545
C        -1.92072115534042      -1.55293357828273       0.97012402589317
C        -3.44952953051270       3.03627460767710      -1.78867479135569
C        -3.16799279055734      -1.43819069624596       1.84444548942196
H         1.49280252620155       4.68808915084158      -0.94369584933789
H         1.65854665288130       3.40791940807181      -2.14869033128631
H         1.82512756928515      -0.92556311163298       2.51213377358062
H         1.93106434946866      -2.68712689968054       2.36988689502665
H         3.67062374357067       3.55431564632383      -0.71944814618831
H         2.68376519221021       3.33032347821306       0.74897592748357
H         4.01688503516344      -1.55750074412598       1.61246893153480
H         3.25984729537851      -2.48206517364519       0.29175340879448
H         0.04341747064006       3.30778753025009       0.45000992111513
H         0.34068144853525       1.88198360231572      -0.54603668240812
H         0.57598137309418      -2.62719322245784       0.29504770882091
H         0.60540631194538      -0.85525686761747       0.30566272029552
H        -1.07988748934754       4.42702628444489      -1.48039575380576
H        -0.77664720878680       3.00033573461208      -2.48435771339415
H        -0.58186904429342      -0.84266385238396       2.50012557858349
H        -0.71921694320192      -2.60786425186460       2.43018850747034
H         3.28585669001250       1.13287282166777       1.61529647190390
H         2.54623652626310       1.35100917639390      -2.52987030288439
H         2.77231514275711      -1.30195267204445      -1.79538858631604
H        -2.11152635489265       1.60262951656709      -0.89440619885348
H        -2.41640287686657       3.03061624450375       0.10316726684620
H        -2.01776368099720      -2.41612673756075       0.30165329898369
H        -1.83307015243077      -0.65577350021788       0.34713423789343
H        -3.60731886719937       4.11557823210243      -1.81201369490397
H        -3.30177117147190       2.68559285025282      -2.81158193732369
H        -4.34560508929552       2.56342430333415      -1.38588581349204
H        -4.05547567374940      -1.33164580162582       1.21984027831053
H        -3.09462986664619      -0.56721574603501       2.49654410413446
H        -3.28401519561132      -2.32788248263682       2.46526587968889
S         1.09046460839915       2.18941796159316       2.82127127141212
O         0.83814965014085       1.14148421398995       1.83116744096303
O         0.19270790824738       3.31485238962377       2.75455396790672
O         2.50539044313836       2.52623720927337       2.92823565790338
C         0.71242927428051       1.33330174089436       4.41652789258896
F         1.53965575643926       0.29193907421394       4.55926677303060
F        -0.53074315575222       0.86485583218714       4.41687704160745
F         0.86483399861546       2.13006670285180       5.46192546179056
