23
C7H9F3N2O2 optimized with ADF in AMS.
N        -0.55039656655786       0.40177217733713       0.08752810391770
N        -2.15013488144277      -1.00143351235927       0.52725109115491
C        -1.26281995916192      -0.62249883518915      -0.40277073129319
C        -1.02154218549810       0.70494885252122       1.34490886297552
C        -2.02214752746913      -0.17816685396807       1.62162232556444
C         0.29306164707332       1.29558136594142      -0.70101203617077
C        -3.22700630851632      -1.96545267368708       0.32268175256945
H        -1.18493619362302      -1.02407263729020      -1.40455796073146
H        -0.65734589001731       1.56025565712036       1.89766938713924
H        -2.69086051965936      -0.24823964758335       2.46853003449615
H         0.60609256291096       0.78254640348338      -1.61629348336947
H        -0.33557066757103       2.16710680440403      -0.94763904071080
H         1.17227526860351       1.57750925164138      -0.10970536048140
H        -4.01770761545860      -1.73616063621097       1.04384726917772
H        -3.63912403727618      -1.81163233623328      -0.68041296213986
H        -2.85411852897744      -2.98834718971029       0.46170682334237
C        -3.34020963159825       1.54991066330626      -0.71803883313223
O        -4.17883824723027       0.91283921129588      -0.04371877495119
O        -2.54089496150901       2.47001930211147      -0.42295501661896
C        -3.27006692996046       1.11618905846178      -2.24081081658738
F        -3.62172283103251      -0.20802304013628      -2.45762992454505
F        -2.00270848640511       1.23118674654967      -2.78800949617637
F        -4.09756178842314       1.86814456769397      -3.01802294402938
