50
C14H28F3NO3S optimized with ADF in AMS.
N        -1.98314273672325       0.00992173063210       0.04231723295541
C        -3.17838720082912       0.22329914824081      -0.88224603441845
C        -2.05510675969133      -1.38436206270213       0.62735593831626
C        -0.73576923980449       0.13648025251617      -0.82430804435939
C        -1.97372705708032       1.03984819119982       1.15875136598963
C        -4.51416296388923      -0.07916437557403      -0.23068605681729
C        -3.38209261687134      -1.69735101608159       1.30392778002428
C        -4.55259695787376      -1.49414373613833       0.34276826454771
C         0.58956952558166      -0.06113787052526      -0.11227318843667
C        -1.66475632876865       2.45350470313902       0.70320234681760
C         1.73004986726726       0.20600783681032      -1.10271503129726
C         3.10996472443409      -0.00438272587809      -0.48383338566516
C         4.25390881670434       0.26841009785808      -1.46005224597595
C         5.62865501797434       0.05938729618178      -0.82903287722282
H        -3.00696066456462      -0.43891184075213      -1.74427490927258
H        -3.11123837739683       1.24822445377959      -1.26620379133646
H        -1.21033443790745      -1.48882929025437       1.32181315711278
H        -1.89421400804998      -2.06489062538208      -0.22418564328774
H        -0.80355461058951       1.12258241016179      -1.30971639716319
H        -0.86305679697971      -0.59340061826362      -1.63739784380073
H        -2.96268675855303       0.98961001480260       1.63123925088280
H        -1.23625234989755       0.68678004626240       1.89589661821000
H        -5.27276550156212       0.05444275798041      -1.01932264239558
H        -4.75450699768793       0.66035023452312       0.55309233536505
H        -3.51343230410913      -1.08239339580878       2.21119257101083
H        -3.32912051721030      -2.74419333799059       1.64860765334933
H        -5.51000630216956      -1.68782786431207       0.85256350154921
H        -4.47378419371943      -2.22349144602488      -0.48447345548686
H         0.69646192056180       0.62635394647795       0.74546017578512
H         0.69087109535259      -1.08875497760322       0.27867933945612
H        -0.61236534573418       2.57509467243386       0.41512331282757
H        -2.27746575766431       2.77106326563780      -0.15188588552750
H        -1.86587717313798       3.13444083167472       1.54389315427645
H         1.64089498008245       1.23841679093542      -1.48508482869546
H         1.60881417828030      -0.45094450315081      -1.98275575946741
H         3.19377469874238      -1.04286904942732      -0.10953057134702
H         3.22319453860757       0.65436992452860       0.39887031766397
H         4.14301941239795      -0.38954944543467      -2.34113609057142
H         4.16861164995377       1.30366326804489      -1.83685124460710
H         5.74751019240094      -0.97724669860885      -0.47409707968749
H         6.43734083507105       0.26309131900257      -1.54712942636706
H         5.77127911091495       0.72686590884336       0.03650720461584
S        -2.13500276300034       1.64263104898910      -3.78050982060630
O        -1.75678869432444       2.55157602029158      -2.66353520822241
O        -3.57244757189856       1.32745759861622      -3.84205991483952
O        -1.22166557561640       0.49687267206339      -3.95657489237674
C        -1.83746377090084       2.70055762890668      -5.30153421234460
F        -0.55437785786111       3.15551519901990      -5.33902955926891
F        -2.66293061139383       3.78145554651247      -5.31273231846397
F        -2.06235188276680       1.99094889624629      -6.43896692072691
