46
C14H12F18NP optimized with DFTB in AMS.
N        -0.05905493673915       2.07646750263858       0.82151372655870
C         0.86295425718128       1.67698845668126      -0.24788771271512
C         2.29635351295903       2.06134871632735       0.13876126805491
C         3.26870488606673       1.71479847861533      -0.98262359802130
C        -0.51337544379594       3.33963681576129       0.85354002015056
C        -0.34195767931963       1.21459427619527       1.81072469726445
C        -1.30967833785607       3.77159829064124       1.89215215722943
C        -1.13944985025078       1.59901715165485       2.86859155167354
C        -1.62784022156972       2.89676001922189       2.92222834965267
H         0.77336829517834       0.59731876842019      -0.39101326049534
H         0.55731241431537       2.18515026566303      -1.16632813703135
H         2.57308946320025       1.52949982736630       1.05087181934325
H         2.33316301257297       3.13235473845503       0.35010029295892
H         3.25326492240163       0.64433852879675      -1.19091095328506
H         4.27625078523061       1.99620747724649      -0.67947167807526
H         3.01552877319406       2.25401537572625      -1.89639046283825
H        -0.21261828321577       3.99288635952373       0.04390132027831
H         0.09494667803437       0.22574260534644       1.74420318688996
H        -1.64335742609585       4.80078768190716       1.90936065454922
H        -1.34130388385343       0.89134642766635       3.66166830868622
H        -2.22283419322374       3.23010392159826       3.76312092054394
P         2.30388174498599       3.68294605802741       4.13669479165459
F         0.86421371632613       3.45712998077529       4.98912341116828
F         1.56510428193705       2.85772237841824       2.81844812668724
F         3.02695305207934       4.49317399994177       5.40025979465271
C         1.53780368627295       5.38856128895054       3.52697061751163
C         2.86190379767251       1.98107868841036       4.94632228924030
C         3.89838698673838       3.85358434873173       2.94664418972552
C         0.42275908071907       6.03875632991380       4.39067159301623
C         2.25277433783465       0.66179347239486       4.40470081572673
C         5.23116684845380       4.50042205005886       3.41001566203577
F         0.99783585573407       5.28522777866900       2.28504471929233
F         2.52714585319112       6.29189322071401       3.44669680540216
F         2.53197791358312       2.02018399631488       6.24802425710404
F         4.19680560472478       1.83775316086007       4.88792932593911
F         3.51528997276193       4.53222768268509       1.84066361931298
F         4.20609676070778       2.60673274399929       2.51906091230551
F         0.21225180424001       7.29611354476332       3.99547621214581
F         0.71182019662968       6.05573059256236       5.68051742478333
F        -0.73728121457104       5.38146146615801       4.22432233721016
F         0.91674991726529       0.67072535690388       4.50454258278124
F         2.54607955140948       0.44999812819287       3.11622475013452
F         2.69601541180594      -0.38737167770158       5.09084735881816
F         6.14020355926457       4.40518798289492       2.43427971686576
F         5.72212695547810       3.89637125506377       4.48505836815288
F         5.07046338634073       5.78835878134419       3.69162696656062
