52
C14H18F18NP optimized with ADF in AMS.
N         0.70269546147483      -1.17997971172003      -0.36385182100704
C        -0.54541217013650      -0.39049384689382      -0.71629541806915
C         1.35510691449583      -1.68210094240212      -1.64673033130264
C        -1.52533210432433      -1.16729041856405      -1.58005582287090
C         0.39700308817909      -2.47992077696420      -2.51053604660656
C         1.64818066228398      -0.22771917489922       0.35521927597171
C        -0.85535357489706      -1.68054995568985      -2.85367140532556
C         0.35707126505715      -2.32492289241123       0.53674219137186
C         2.93876150388960      -0.83972462011307       0.85745161948342
H        -0.18751022606727       0.50266273805576      -1.25348593509825
H        -0.99577156564187      -0.06926992365433       0.23553266602939
H         2.21931226123855      -2.29104303671403      -1.36151725177586
H         1.70216968155680      -0.77667560008821      -2.17072153935615
H        -2.35913978595956      -0.48462364636574      -1.81499793041799
H        -1.96488295416423      -2.00271571959379      -1.01010205730812
H         0.14378227407733      -3.43351737817606      -2.02062062016883
H         0.95427853722471      -2.77200150380512      -3.41370466472584
H         1.85079815742632       0.57893315783846      -0.36565272233618
H         1.06091305643939       0.19670970348892       1.18548842552378
H        -1.56008957585933      -2.30050343039921      -3.42965576886248
H        -0.58253471521110      -0.82047870379419      -3.49320187137601
H        -0.39313385355798      -2.95540653218880       0.05359765862289
H         1.25321700415662      -2.92582076085623       0.71243326954448
H        -0.03874601437115      -1.91890113032296       1.47726135893747
H         3.52556833897765      -0.02929191109855       1.31638681866259
H         2.77612648769971      -1.60349841095501       1.62828530801019
H         3.54760093607747      -1.27325065130643       0.05505179432147
P         3.52482766044816      -5.57113526028880      -2.10666421429234
F         3.82287932898733      -5.80947553562233      -3.71741951691267
F         2.94587750133947      -4.00566785081063      -2.37278463217462
F         4.06001118210797      -7.09871165965428      -1.75950128624203
C         1.70581953143865      -6.18850981963057      -2.56268511002981
C         5.39925666189238      -4.76527217443799      -2.02036358376833
C         3.28906372280393      -5.35274733191740      -0.08791464747277
C         1.47413139227614      -7.69170701665741      -2.89998592563669
C         5.78263929432874      -3.43903177806802      -1.26547871099294
C         2.26701091485279      -6.06830127137489       0.86470101614366
F         1.26814161633472      -5.50998717475411      -3.68460997709738
F         0.78719881224230      -5.87675810547929      -1.56750266091316
F         5.74679834414062      -4.43595256849438      -3.31657305384321
F         6.31090912576188      -5.69949275910627      -1.58880262447593
F         3.12820221569378      -3.99407751669625       0.23479183920948
F         4.50199608755236      -5.73363894089351       0.43323792519981
F         0.17983698368694      -7.85808209487272      -3.31402434211470
F         1.65683362495270      -8.48950101655744      -1.82514522918263
F         2.28220159320096      -8.10841064124902      -3.89515045426204
F         7.04377913673802      -3.07885669446102      -1.63373918964202
F         4.95790933107034      -2.40438892459933      -1.61185820166386
F         5.78345579453727      -3.52990788460618       0.08264431699843
F         1.05339254125468      -5.44361179401480       0.89673891556935
F         2.74251491409114      -6.01732032594716       2.14390628319872
F         2.08588457520208      -7.35851642131309       0.54249865952599
