29
C7H13F6N2P optimized with ForceField in AMS.
N         0.06041330256296      -0.60821990077497      -0.45367362403131
N        -2.00459973808790       0.13133456164570      -0.09304919311110
C         1.42848955883618      -0.69866262039432      -0.96073187393872
C         2.44875194425176      -0.39272567366702       0.14185344651786
C        -0.85259776301835       0.33424759735297      -0.76039980266878
C        -0.53619096198448      -1.43569102397782       0.42847904146895
C        -1.81856221115251      -0.97550696471677       0.65283132919854
C         2.29955014003553       1.02794170784885       0.68401670550311
C        -3.20394790907200       0.95746419852366      -0.13746014860262
H         1.57199716389900       0.01307229971963      -1.80346631912573
H         1.60604545195188      -1.72340197404577      -1.35337435073830
H         2.33605035064428      -1.12025371205673       0.97420405701683
H         3.47080187311989      -0.50839100260562      -0.27891689979206
H        -0.67553155636877       1.15856721508783      -1.44009221231010
H        -0.07204185718995      -2.30397186020422       0.87846515558436
H        -2.55609022800304      -1.40925974850169       1.31567876993544
H         1.31895576399951       1.14969505758723       1.19093433973517
H         2.38124984444117       1.76798374381542      -0.14030119352203
H         3.10222960530172       1.22896787429977       1.42370385506817
H        -3.05715189447789       1.82025720500417      -0.82196802117461
H        -4.06148293593246       0.35266705666171      -0.49943391990311
H        -3.42947487466475       1.34189421348871       0.87951466551118
P         6.63937017537553       0.04673404308649       1.63317126000083
F         5.81360132112088       1.26705780120703       0.75164969776465
F         8.07627602688624       0.97736810615906       1.76623171715551
F         6.05395592690846       0.78364802429269       3.06938938232626
F         7.51675191565077      -1.18951255308339       2.43977486292305
F         5.29284349609378      -1.01694525270271       1.68207874180436
F         7.09791970757258      -0.54721955214988       0.08864485530421
