34
C10H18F3NO2 optimized with DFTB in AMS.
N         0.91775307434187      -0.18475804793577      -0.05698112257446
C         0.38248359566517       1.16380836594648      -0.44865991708683
C        -0.13857655392644      -1.22536010302496      -0.25256582334680
C        -0.90683386992158       1.52992437378945       0.27214557919072
C        -1.42094912312563      -0.90431048143590       0.50678804711428
C         2.07992055627636      -0.46448577727836      -0.98174093023270
C        -1.97427137102412       0.45407712329369       0.07851159191543
C         1.39528738415390      -0.15863563681138       1.35216086258570
C         2.92982058945941      -1.65994951467004      -0.58667606684279
H         0.21242014255603       1.13459145886964      -1.52830475631675
H         1.17445950137902       1.88696536534541      -0.22967305374467
H         0.27014604267733      -2.18291695112653       0.07609439956647
H        -0.34505364205733      -1.27814367894955      -1.32548138811515
H        -1.25511764732950       2.47774901312553      -0.14606351765179
H        -0.72331693715655       1.68841350336941       1.33790104698398
H        -1.23900530829506      -0.91572856094853       1.58471272485653
H        -2.14549649153178      -1.69154706596016       0.28242139044062
H         1.65737223098080      -0.59906490315828      -1.98103958845975
H         2.69636471136140       0.43791302847582      -0.97142318291121
H        -2.85891503655224       0.69605888567702       0.67207544082695
H        -2.27074397263435       0.41268812064494      -0.97473115887419
H         0.61950452556942       0.24104976895272       1.99863490279759
H         1.64329597900214      -1.17050295634683       1.66305694824935
H         2.28644693102497       0.46852029235301       1.39566617207030
H         3.60635502098320      -1.86687014746162      -1.41565509418460
H         3.53435819455874      -1.42310355644700       0.28782627033223
H         2.33574243754416      -2.55287890672899      -0.39534411207057
C         4.13998221763020       1.81737737396729       0.51598570356787
O         3.16720237079225       2.30843281786912      -0.07036605686305
O         4.28548959239991       0.69043511190855       0.99190465474157
C         5.38335277744410       2.80878283277594       0.67797904526080
F         6.50592633658000       2.17688079999616       1.04644932620835
F         5.13593824068330       3.74802887828825       1.61162633408009
F         5.65500150489091       3.45789992383544      -0.46712485831353
