49
C13H28F3NO3S optimized with ADF in AMS.
N        -0.32129573415389      -0.01210544445012       0.07860591815214
C        -1.12999115724415       0.57635276781563       1.24273098287371
C        -1.27452016168892      -0.64235882207866      -0.94824669507688
C         0.60494755570213      -1.09228311169738       0.59619549721325
C         0.45990171339050       1.11020972437780      -0.57438023534622
C        -1.69475308564615      -0.41921663948136       2.24305266331599
C        -2.00110827155364       0.32013775581036      -1.87315474264896
C         1.64962680383512      -1.61705040655000      -0.37932443440542
C         1.59571554951705       1.71400272504935       0.23981980293649
C        -2.41191620761499       0.36199491080394       3.34829189911741
C        -2.88986608953752      -0.49641516379931      -2.81502723470722
C         2.45968414479319      -2.72576318603241       0.29504944998788
C         2.26384908832239       2.82564492754187      -0.57183999561929
H        -1.95996683545307       1.13915416643930       0.78566865162166
H        -0.45290632463872       1.27246274039296       1.75614784530895
H        -2.02089033564246      -1.20448750204383      -0.36614002782480
H        -0.66345263345726      -1.34052186191245      -1.53670824576482
H        -0.04927233054164      -1.91503003250977       0.91675792764910
H         1.09251666980476      -0.68507653204499       1.49485978712047
H        -0.28036256514712       1.88668492407596      -0.81106261465194
H         0.84219577549847       0.71238276953042      -1.52645664422195
H        -2.41755735898076      -1.08825718606969       1.74942264543188
H        -0.89835451118842      -1.02905117937872       2.69865906357450
H        -2.64317740516015       0.99538939526867      -1.28405677012908
H        -1.29278595726810       0.91554739897253      -2.47145307183800
H         1.17218811434312      -2.02085692547046      -1.28544103521679
H         2.32912520117554      -0.81359375494119      -0.70316117643200
H         1.21891581598515       2.13724757176707       1.18347455743570
H         2.34604951069278       0.95247611517812       0.50283355998496
H        -2.88226491329575      -0.33370180694290       4.05626303083059
H        -1.70400817398830       0.99878360821494       3.90444436861884
H        -3.21106415262259       0.98914205301001       2.92866608007541
H        -3.45123878403521       0.17622410982922      -3.47843069553725
H        -2.29210738403579      -1.17877931182796      -3.44226769602848
H        -3.61617277477847      -1.08057375911028      -2.23287060388352
H         3.21831862931647      -3.12588700648032      -0.39224363464430
H         2.97889467282006      -2.35188503892075       1.19160486057626
H         1.81011183143858      -3.55958206567063       0.60311700813704
H         3.08236892405336       3.28496235107207      -0.00009803587783
H         2.68422466546391       2.43645131074159      -1.51279457395695
H         1.54332835754544       3.61861753080328      -0.82514487014623
S        -4.89255972575644       0.07910445548121       0.60619205617571
O        -5.50910001199155      -0.00954633211766       1.93196767642169
O        -4.21832442664881      -1.15204593497783       0.12744676695551
O        -4.12611414818252       1.32209120470881       0.34064425148963
C        -6.35779879930393       0.23218047516244      -0.55997335121083
F        -7.09012474765758       1.34279618513596      -0.28561649151082
F        -7.17856577112414      -0.84557316927916      -0.46024205625321
F        -5.94702269036002       0.31912568490431      -1.85994592427199
