63
C17H32F6N2O4S2 optimized with ForceField in AMS.
N        -1.09536795807600       0.82054396636675      -0.18233103555530
C        -1.57609603705821       1.86099504363507       0.78561841964677
C        -2.07429752477675       0.73076256164497      -1.31469686980180
C         0.20500040465259       1.28516689344369      -0.77833055949554
C        -0.94059356711854      -0.49592892862238       0.53174988378683
C        -3.02107300509725       1.64158195053928       1.27868200943122
C        -3.52012292563033       0.44752572104516      -0.87466043482034
C        -3.99570589175493       1.51061007168967       0.11107612011572
C         1.40502387130499       1.36424765352496       0.19766126368404
C        -0.35205856104254      -1.65378603965555      -0.31167486700253
C         2.65559047078305       1.87738382914003      -0.52783884628010
C        -0.21674299599793      -2.92426153297439       0.53844121274943
C         3.86598914402841       1.90815764304455       0.41194315824837
C         0.36553461812868      -4.08126598877612      -0.28197604138009
C         5.10837936010495       2.41891562187225      -0.31072106477230
C         0.48154752222337      -5.34899572428407       0.56024309532726
H        -1.53327004091523       2.87421928245434       0.32320712615301
H        -0.92953146516200       1.89566060509441       1.68868950552667
H        -1.77001125454475      -0.03351965091085      -2.05956835532196
H        -2.09382501806301       1.69269802875189      -1.87926718082350
H         0.07519009826513       2.29723766361746      -1.22810381651676
H         0.49477627407185       0.63364517837242      -1.63289901977931
H        -1.91242369081053      -0.84904425040617       0.92797170187764
H        -0.31047600929727      -0.36733932333060       1.43912201665239
H        -3.32286213558397       2.51266028242060       1.90002410167707
H        -3.08617586058369       0.74771952586409       1.93333089842380
H        -3.61746427407868      -0.56595229862066      -0.43410780605955
H        -4.17792932189009       0.47022096406420      -1.77052579132466
H        -4.08263832084225       2.48914492841735      -0.41099687890872
H        -5.00191319868740       1.23683009742735       0.49544485416744
H         1.18218696939599       2.05644784912996       1.03498211956815
H         1.63753410235639       0.36233223725273       0.61260090372172
H        -1.01669798995427      -1.88418189143611      -1.16874596808305
H         0.65362448974074      -1.39093002887837      -0.69741885814355
H         2.46242994198172       2.90315175947792      -0.91299752104168
H         2.88035501651564       1.21257457417669      -1.39114495738339
H         0.44958332007916      -2.71810855059578       1.40523629720355
H        -1.21845563402524      -3.21611147869211       0.92452367822198
H         4.06907826601981       0.88467732604145       0.79622577309293
H         3.65282762358657       2.57303410285594       1.27733934642192
H         1.37489463443321      -3.80390264856016      -0.65707772816792
H        -0.28961613507781      -4.28877828949260      -1.15610744023108
H         5.96896421190226       2.42875702789374       0.39089879349948
H         5.35784003950459       1.75809818237141      -1.16836929144648
H         4.94022323786219       3.45231298154265      -0.68236991492294
H         0.90756265614240      -6.16884047587054      -0.05571776917256
H         1.14990569191726      -5.17473267508507       1.43032176618124
H        -0.51985061535781      -5.66310927894421       0.92467302431080
N         8.44535277926811       1.93400213650045      -2.78688072750028
S         8.36783375692379       3.56283410451519      -2.61968441531377
S         9.67532574057476       1.17869850912176      -3.56438426539162
C         7.39747445962284       4.23902953442207      -3.95064585163635
C        10.83656268571632       0.57216000745222      -2.35938857741534
O         7.70289515592249       3.89615140933208      -1.31539787152163
O         9.74454915174287       4.16673647953444      -2.64504934074141
O        10.37460539954246       2.12173944936097      -4.50414282718863
O         9.12897801111446       0.01342178638989      -4.33927470893609
F         7.25593068459332       5.60203477881390      -3.77414406529508
F         6.14898040464836       3.64621262704146      -3.96006044062571
F         8.02848491785092       3.99615960044929      -5.15562144480084
F        11.90772924096443      -0.01669582527548      -3.00362324910495
F        10.21743367488825      -0.36245400961369      -1.55122411626093
F        11.28896652555217       1.62126478271817      -1.58223474022168
