36
C10H19BF4N2 optimized with DFTB in AMS.
N         0.30329757911654      -1.49283642032094      -0.10520406510152
N        -1.79229558185316      -0.99514818617654      -0.13394257298288
C         1.64360606976633      -1.80741633960309       0.38586801682389
C         2.70723225189198      -1.02096079741983      -0.37533996468767
C        -3.11257242264137      -0.55439677602174       0.29131267186384
C        -0.71961193995820      -1.11667824274078       0.65467916964958
C         2.49376817825866       0.49243827575429      -0.27807191379402
C        -0.11571852777212      -1.62329384187409      -1.39849770375119
C        -1.43558265438256      -1.30129528011857      -1.42220090230600
C        -3.32312777847544       0.92104301056757      -0.06359616365516
C         3.58438338816690       1.25346394431537      -1.02971958643388
C        -2.34876694836031       1.83644672331089       0.67389204393641
H         1.66398052679515      -1.57315680977323       1.45397338649295
H         1.79932318751786      -2.88239615677993       0.23998800679716
H         2.70601475236267      -1.33965230444535      -1.42074318866438
H         3.67793043831823      -1.28733862810180       0.05186609099249
H        -3.19206458201250      -0.71050932619577       1.37059180948059
H        -3.85562052273877      -1.17595600067078      -0.21542230235090
H        -0.69636248556693      -0.95203019172893       1.71797434055879
H         1.51501620982420       0.75171903466786      -0.69836052101112
H         2.49405626544158       0.79654590840221       0.77517655849631
H         0.54611047423230      -1.96077338113939      -2.17768304035688
H        -2.14578510121333      -1.28789470051809      -2.22967042290455
H        -3.20608696950510       1.04968056772694      -1.14362143185838
H        -4.35065885416914       1.18594233639730       0.20041409725738
H         3.58358701948399       0.97557787511985      -2.08430087317934
H         4.56556322893929       1.02548681689206      -0.61170177371600
H         3.41372550994658       2.32760952670361      -0.95197800275985
H        -1.31888502214322       1.59610663405842       0.40665498027586
H        -2.46342462177040       1.72896383230665       1.75325443677989
H        -2.54251781857936       2.87413002952319       0.40473465319296
B         1.35476739745588      -4.48354235302642      -1.51969479357122
F         2.00546333610452      -4.72106084493507      -0.29825658432537
F         1.37215074228186      -5.57413362947440      -2.34365324864848
F         1.99548707382812      -3.36572275587927      -2.13940777734460
F         0.02381524820928      -4.07479415190221      -1.23372262859473
