40
C12H8F18NP optimized with ForceField in AMS.
N        -0.68786258433066       0.01408601513822      -0.03655168334997
C        -0.00889422592494       1.19370875738029       0.10347796492348
C        -0.01176612831070      -1.15563766307088      -0.24645886665057
C        -2.15067719096789      -0.01268925081231       0.03319062285576
C         1.38630907521943       1.22031940208647       0.03199402019066
C         1.38332060509377      -1.16437405716357      -0.32337888833879
C         2.08370166439551       0.03279634301499      -0.18393411617680
H        -0.54095653564461       2.12291419505650       0.26915846645945
H        -0.55093464472354      -2.08944522664845      -0.35593359970605
H        -2.47572752086858      -0.68383475772637       0.85662495515401
H        -2.57217399003644       0.99831923703154       0.22262526794624
H        -2.56516602224901      -0.38785119390365      -0.92681041011379
H         1.92114809172707       2.15488586065039       0.14149369927405
H         1.91592239506723      -2.09219645171280      -0.48794566303479
H         3.16399115275388       0.04091120267342      -0.24423623212082
P         6.45505924266967      -2.82519547572346       3.04313770500893
F         6.02969279309596      -3.47743461325278       1.50446754735889
F         6.89078581721688      -1.16907423618083       2.85033566730618
F         5.79923423665882      -4.39853148526591       3.27740363657967
C         4.76804546540535      -1.91427190820219       2.79213297817751
C         8.14450074639428      -3.12246391287180       2.14661879111538
C         6.92130317203969      -3.08461974944877       4.88962619327462
C         3.50709070785150      -2.80345682305740       2.84872809170447
C         9.42679754950055      -2.61324339367187       2.85240407996412
C         5.77460292272429      -3.21779388371739       5.90969343883013
F         4.76772549667259      -1.30032501022199       1.54533499021594
F         4.61787002756746      -0.90729713750500       3.73244068092637
F         8.12167411059811      -2.50301038938685       0.90063202004197
F         8.30415848323456      -4.48497681684254       1.94277434384893
F         7.70155503441031      -2.01498576084709       5.29122037041252
F         7.68038194557249      -4.23780798856550       5.00290107756681
F         2.39339646719412      -2.01821348632062       2.60986424839213
F         3.35612139699996      -3.38367851402015       4.08884399401162
F         3.54366878131016      -3.79581166194864       1.88621433416308
F        10.48753878766965      -2.71909084838796       1.96960810302356
F         9.32452983996990      -1.28700280539933       3.22678625881281
F         9.74081457840073      -3.37635212899509       3.95793859333502
F         4.92349561308955      -2.13512970391748       5.86610648547538
F         6.31912179603491      -3.26938359394069       7.18102189694581
F         5.06376600731799      -4.38753128800244       5.71484615969607
