52
C16H30F3NO2 optimized with DFTB in AMS.
N         0.68512257394307       1.16982887677035       0.55446661359165
C         1.43180725608334       1.72783307906425       1.74976817302694
C         0.24610222611340       2.37079213629092      -0.23687772694974
C         1.61161765551075       0.33275515874553      -0.29622682618633
C        -0.50152982526349       0.38938545396198       1.02585870352184
C         1.68468142224771       3.20992253074468       1.47460105865550
C         1.32208499512545       3.41520989314802       0.00586648000100
C         1.97649409944070      -1.02254747691622       0.30449383400592
C        -1.35779413570565      -0.18066953712180      -0.10330168843371
C         3.08610431475555      -1.67024831046460      -0.53798764911309
C        -2.54969864499121      -0.94045372649727       0.49087032623734
C         3.82220711196151      -2.74481910937702       0.26835994199557
C        -3.43251338796915      -1.52888628094148      -0.61433160183805
C         5.01786297370472      -3.28510200405974      -0.51127937579195
C        -4.61940189198046      -2.29054879454760      -0.02798525277643
H         2.37167592696795       1.18038761313620       1.86741682370308
H         0.82088258124074       1.58188441161659       2.64134699831576
H        -0.71385341421413       2.70571548888786       0.16470136715994
H         0.12509731961919       2.09811673130543      -1.28498231782408
H         2.51492094030695       0.92947715039685      -0.43468818364347
H         1.13172103941744       0.19904070837265      -1.26899425095186
H        -1.10319276945042       1.06685037068767       1.63819629381988
H        -0.12966737488360      -0.41338330652074       1.66573257049534
H         2.72787724378442       3.46281821103223       1.66657028517368
H         1.05061733095790       3.82913824771571       2.11439687833013
H         0.94086007155092       4.41832039814418      -0.18852957184502
H         2.18650760233731       3.23745813107022      -0.63559423753491
H         1.10649024755971      -1.68486538417254       0.33372028957348
H         2.34159350000711      -0.88798593230248       1.32445993759376
H        -0.77103966708216      -0.86339136615173      -0.72211415788638
H        -1.72382130350100       0.62693787570812      -0.74344687380581
H         3.80973039190487      -0.90668034198725      -0.83667186091841
H         2.65619533314909      -2.09899908512741      -1.45006289532636
H        -3.14247879136816      -0.26077311180858       1.11243950437955
H        -2.18093899321539      -1.74655341014688       1.13377728010502
H         3.13222455311132      -3.55805693520020       0.52161920844386
H         4.18242177472397      -2.29507639482022       1.19838005805831
H        -2.83451582272144      -2.20500938035931      -1.23424061125263
H        -3.79765071955525      -0.72031579645339      -1.25646309611029
H         5.50526132234662      -4.07788247461214       0.05663604188560
H         4.70526036118078      -3.68806573521632      -1.47668875316066
H         5.73607742889981      -2.48249597492797      -0.67912711584841
H        -5.23150360539392      -2.70002366280298      -0.83139321660233
H        -4.27348395053891      -3.11275068434769       0.59961329776821
H        -5.23824535087858      -1.62724308299845       0.57768700669989
C         5.03463113310742       0.51208552188753       1.05752638015764
O         5.78501435596334      -0.23673309734203       0.46539052933267
O         4.12676614324618       0.33824464692187       1.87411394096540
C         5.16276726159679       2.08784605657157       0.62840322699419
F         4.19622704808446       2.35118777780135      -0.31495081893276
F         6.32162547806923       2.46590306411403       0.09009277083672
F         4.89583012619318       2.93923122312825       1.64219019960481
