55
C15H20F18NP optimized with ForceField in AMS.
N        -0.05082226609378       0.24447970745948       0.16310401411414
C        -0.96636375912248       1.24064262877829      -0.48039600380140
C        -0.50171406869989      -1.14823236809632      -0.14366044379277
C         1.31271783315473       0.47701813928124      -0.42048506398762
C        -2.46032966434680       1.02038355151653      -0.17608441467837
C        -1.98061186878650      -1.40613824856718       0.19152866141654
C        -2.88118256345244      -0.40369138522207      -0.51904803032386
C        -0.00485567081536       0.47557409715412       1.63304326708205
C         2.44153051433545      -0.42927714261035       0.13031326998419
C         3.76706987115702      -0.12982676914553      -0.56446587082438
H        -0.85560040582878       1.20699562030594      -1.58941377410608
H        -0.69774739771610       2.27599318294096      -0.16849695990782
H         0.09073114941537      -1.89356617160662       0.42925556510547
H        -0.35141403315669      -1.37260586087411      -1.22480589313418
H         1.61930720397758       1.53635142018001      -0.25372223063406
H         1.28012369336217       0.33559146743065      -1.52591729340390
H        -3.06077607676100       1.72701444105830      -0.78915038205723
H        -2.69205712737402       1.24415176808804       0.88577539522778
H        -2.14698022495606      -1.35881394702169       1.28881518043831
H        -2.25345867301294      -2.43201395864188      -0.13835167894132
H        -3.93543690291446      -0.56537592501239      -0.20675073192076
H        -2.81851049782766      -0.55853566745969      -1.61894848020972
H         0.55988741912540      -0.32564676782957       2.15472118262256
H         0.46976460625505       1.45362722408703       1.87002086834692
H        -1.01261238926378       0.48003755698925       2.09138077161429
H         2.58783153063022      -0.25920255782511       1.21657500982340
H         2.21219038815653      -1.50007225490014      -0.04106316635844
H         3.68184715088095      -0.30612820223712      -1.65781953243426
H         4.06277513113325       0.92286307131482      -0.38482460551827
H         4.56038476621533      -0.79200704860725      -0.15801500848150
P         5.77292918721044       5.33907054868360      -2.04092097412172
F         6.52808292302050       3.83363435036734      -2.39578192117250
F         4.06578311896023       5.17273588364622      -1.87165885332007
F         7.44570207023610       5.70164688407537      -1.86775482247896
C         5.61398109727598       4.43442022990474      -0.33403824910190
C         5.51857985004574       5.03721547068705      -3.93526154121688
C         5.74674572063615       7.26663978612564      -1.90099991657103
C         6.92158400914371       3.95657923046802       0.35448657945307
C         4.62752884001901       6.04249163698547      -4.69426975992043
C         5.99460557308402       7.87041968457146      -0.50478216920920
F         4.82834632431084       3.30284089127647      -0.49908245206329
F         4.94995748739851       5.24829029973533       0.56125518724598
F         4.93344032527730       3.79021018903914      -4.13611212640932
F         6.75821640483657       5.04109086398676      -4.55923532117680
F         4.50076121208767       7.72253319378731      -2.29337432894823
F         6.67819064488777       7.81458727045888      -2.77261158153557
F         6.60911189882644       3.48428038953382       1.61715411482957
F         7.84004091046734       4.97349977968472       0.50411989792595
F         7.51309547060581       2.91793284689363      -0.34197327990761
F         4.43309143133301       5.57649476408764      -5.98308386468498
F         3.38519155634020       6.17002346000395      -4.10178795724725
F         5.22981185393212       7.28074335518120      -4.79197280767489
F         4.88909169196956       7.69865316692861       0.30648548091427
F         6.20322337023326       9.23200377525965      -0.63604054743130
F         7.10645097789139       7.33216063980035       0.10328105816337
