20
C6H8BF4N optimized with ForceField in AMS.
N        -0.70848451260031       0.00826959770915       0.00718609650377
C        -0.02248310377720       1.19120174661768       0.00956217976516
C        -0.03822470913880      -1.18384453416075       0.00601770293730
C        -2.17144253074995       0.02087475931342      -0.04365042981987
C         1.37460037952751       1.20021019885531       0.02346185965986
C         1.35869664207624      -1.21116714269730       0.01778418794585
C         2.06654063198015      -0.01008269303033       0.02651165614780
H        -0.55321168409700       2.13601623307305      -0.00078517459937
H        -0.58077961033254      -2.12174245984473      -0.00983786728322
H        -2.59354566740679      -0.89452963739684       0.42403458035939
H        -2.57626336006362       0.89655497764305       0.50870809923111
H        -2.50412794450264       0.07106045093997      -1.10152335876453
H         1.91409801653986       2.13831718558695       0.02685092210414
H         1.88593836758162      -2.15617163065908       0.01465959160819
H         3.14857489346551      -0.01712464900237       0.03188436495343
B        -1.28871834764292      -0.64617814640469       3.74494538025496
F         0.10271068493986      -0.92088141689773       3.82453357665549
F        -1.48461563223223       0.64963478641442       3.19666262889005
F        -1.85853860584744      -0.70072606623387       5.04516299934589
F        -1.91471349411930      -1.61382550852532       2.91500150630461
