54
C14H26F6N2O4S2 optimized with ForceField in AMS.
N         0.98215875750922      -0.31310496794904      -0.00253306119722
C         2.05706318743190       0.05876349993348      -0.97434966197394
C         1.64596419639307      -1.23131914076430       0.97334701372317
C         0.49334992604843       0.90553571273872       0.72274123454609
C        -0.11464932775213      -1.03264216827533      -0.72949985844668
C         3.26446898531713      -0.82008686289710      -0.70786644677626
C         3.14355095278587      -1.15404375095216       0.75186227689927
C        -0.24115559569206       1.93845212918934      -0.16544320619029
C        -1.30211615093330      -1.46913693328548       0.16104608605415
C        -0.56495149447591       3.20581946642666       0.63658826151358
C        -2.30770875131951      -2.30114056463572      -0.64490590130705
C        -1.29922732547889       4.23481341912099      -0.21869227339994
C        -3.49915486361967      -2.71372250839098       0.21482177134349
H         2.39306398320258       1.11360321980398      -0.84980278662176
H         1.74558917844777      -0.04565670550447      -2.03917429641440
H         1.35240871534839      -2.29486971649201       0.81766815546704
H         1.40950695810781      -0.99343220038266       2.03598907993520
H        -0.18644672559236       0.61813861288236       1.55504490721735
H         1.35573458859531       1.41483732666286       1.21337871025212
H        -0.51112452571561      -0.40368513947191      -1.55698035097832
H         0.30227775516532      -1.94014918584384      -1.22602864741513
H         3.19736323904778      -1.75047418742359      -1.31491042214689
H         4.21825828790385      -0.29420343487877      -0.93194387725647
H         3.57587540311622      -0.33227697112614       1.36536497448955
H         3.64957621916967      -2.11299347468348       0.99845561206118
H         0.38227214624605       2.21640355250076      -1.04096099446681
H        -1.19572766950861       1.51106606869377      -0.53676381549759
H        -0.94453852237532      -2.07314778989482       1.02128055181524
H        -1.83066097976786      -0.57638505025151       0.55442508296879
H         0.37585166752240       3.66170611124172       1.01518355236691
H        -1.20362253277994       2.94257447355440       1.50794148863137
H        -2.67789581915474      -1.70587998765802      -1.50799054871959
H        -1.81242974691138      -3.21692514452458      -1.03565466785160
H        -2.25515477842879       3.81313207181034      -0.59608847102853
H        -0.66768207577520       4.54239743443864      -1.07924367390207
H        -1.52584931486395       5.13328562365183       0.39359620323775
H        -4.00397539825421      -1.81798465091597       0.63483352189050
H        -3.16516325276380      -3.37202744557624       1.04502450163799
H        -4.23217353655914      -3.26749878303045      -0.40657587166785
N        -6.10724941034111      -6.92239269983373      -2.44457434261071
S        -6.46678524305079      -8.14405716682273      -3.47739492328432
S        -4.64791166957755      -6.17442453374969      -2.41804904772976
C        -6.08157661855663      -9.69827275908444      -2.69803279709792
C        -4.76952926805176      -4.64085042545967      -3.31467111597407
O        -7.93607702634286      -8.11105999629214      -3.79080750309388
O        -5.67942021004543      -8.01086862828819      -4.75139301171135
O        -3.58972449905596      -7.04021738587563      -3.04348515141181
O        -4.27246288121800      -5.87763232393946      -0.99400777846098
F        -6.39710442052318     -10.73823773038450      -3.55146895846952
F        -6.81510383319704      -9.82355018089592      -1.53358861702023
F        -4.73418093827657      -9.74525342614587      -2.39710145010584
F        -3.54661720352170      -3.99773907406769      -3.30928797005074
F        -5.71617787899894      -3.83060454118604      -2.71734377293281
F        -5.14584122357889      -4.89845642771560      -4.61871506583838
