34
C10H16F6NP optimized with ForceField in AMS.
N         1.74652838567840      -0.02955328624950      -0.52552408815593
C        -0.63014187685519      -0.01240716023391       0.09263298364266
C        -2.07166541651193      -0.02900600244152      -0.42694530387206
C         0.37924750406696      -0.06463253386691      -1.05865925291996
C        -3.07057060224284       0.02192627697745       0.73450219647179
C        -4.50913853366045       0.02756317772364       0.22822385034807
C         2.37493977965701      -1.19771041166619      -0.19082036907092
C         2.36096203890447       1.17410536318041      -0.31291968608225
C         3.64960221058307      -1.17862641902587       0.38112459702684
C         3.63527012448868       1.22896759781969       0.25731306910953
C         4.27973895294228       0.04391138157516       0.60947257953901
H        -0.46646258612353      -0.88793310177532       0.75874344939632
H        -0.46050491362049       0.91522155733224       0.68254016305884
H        -2.24046755673728      -0.95666246643128      -1.01685391524653
H        -2.23271608576225       0.84877229534579      -1.09096562723262
H         0.22228169313844      -0.99082171740335      -1.65610112753161
H         0.21241157873972       0.79477357287181      -1.74640108434075
H        -2.89998404468063       0.94008994965036       1.33418568367818
H        -2.92397658058034      -0.85928471685881       1.39639223342178
H        -4.68778361382618       0.91354627370025      -0.41779123376610
H        -5.20582421930566       0.07249368712169       1.09196850106886
H        -4.71773685954157      -0.89782925609050      -0.34960410984105
H         1.88486760773511      -2.15086553739772      -0.35127323536129
H         1.85976297603512       2.09990548589952      -0.57010950148279
H         4.14017985857225      -2.10442273479665       0.65341212836686
H         4.11449095893574       2.18362693652557       0.43293740750794
H         5.26265223058045       0.07306366133943       1.06163369737887
P        -2.81851820416470       4.99672636945362       2.36943244247143
F        -1.18662817393536       5.13684192469635       2.88742570586229
F        -2.31799365036239       5.19080210640571       0.73753736761039
F        -2.61071768419328       3.29942677977643       2.22656375750856
F        -4.44835076624419       4.83977928440978       1.84933406997127
F        -3.31919383208225       4.78567286950486       3.99915643946183
F        -3.01643670582716       6.69597003372777       2.52328732260254
