29
C9H13F3N2O2 optimized with ForceField in AMS.
N         1.10756342539348       0.35805177395850      -0.37916010487938
N        -1.11614869125843       0.34600515626050      -0.38666019909615
C         0.00045400324865      -0.24617658962433      -0.85289903635777
C         2.49344961201816      -0.02157276557556      -0.64214217453998
C        -2.49636357276531      -0.05215738117615      -0.65103229756746
C         0.67767547234770       1.37004326462110       0.40186653141006
C        -0.70267920371976       1.36307894187996       0.39579820478098
C         3.11249392906669      -0.66295585358082       0.59447204268260
C        -3.11088030369948      -0.69091603337513       0.58933400745633
H         0.00729024080711      -1.11178534912213      -1.50347411362173
H         2.53531163031493      -0.74850852751861      -1.48249880321453
H         3.07811639993556       0.87725907527845      -0.93421057874826
H        -3.09070929974759       0.83774348504621      -0.95083323204512
H        -2.52716588412273      -0.78576338578557      -1.48595366244606
H         1.31885012696712       2.05813675727471       0.93739780490395
H        -1.35629412314763       2.04530236746445       0.92242122197704
H         3.11082779680989       0.05380746140412       1.44276367448984
H         4.16045881652263      -0.95872593473855       0.37734019343709
H         2.53614669372030      -1.56903665027357       0.87948515848963
H        -2.52395326989038      -1.58716298109186       0.88374180753669
H        -4.15464147178784      -1.00104696110707       0.37253952477177
H        -3.12030712907703       0.03289004116805       1.43134246298102
C        -2.28897519602193       2.99028725863917       5.36944732441729
O        -1.88910165631536       3.12200980202235       6.51535721110099
O        -3.38620413953687       3.42567440908981       5.05937308138710
C        -1.44031728142873       2.30370654529332       4.34162435234280
F        -2.13443919416035       1.23286518633043       3.80929614388145
F        -0.26577606362493       1.84187866495874       4.90983737310527
F        -1.13191780404787       3.19572834587947       3.33178517766453
