55
C15H20F18NP optimized with ADF in AMS.
C         2.74445616580093       0.74487337653927       3.30493069482646
C         2.94665257785490       1.36579966288566       1.92243156154319
H         2.77900261324902      -1.15050560947957       1.10875694384502
H         0.97537103802938      -1.20076425722447       1.16282450897640
H         2.50603347836803      -1.44794584822636       3.45318089142252
H         0.97576265591774      -0.55229690769256       3.51631971490750
H         2.18577911836326       1.41112824756233       3.97862205073776
H         3.72766870385716       0.55541131207363       3.75698120538843
H         2.86850863396172       2.46016971339550       1.87203591309848
H         3.89848259026396       1.04123350250023       1.49130110504671
H        -0.23055647894411       0.86091117381931       0.76049691665118
C         0.55274548604051       1.38911650456579       1.31526129578511
H         0.34225751602632       1.34076236764365       2.38921125149198
H         0.60141295591978       2.43639309335670       0.99187195444897
C         2.24766533118425       0.89773338339504      -0.42207138750875
H         2.22764034015274       1.98385708588417      -0.60255609725768
H         3.28684552651658       0.55719604399181      -0.50024577205509
H         0.29880089858867       0.24027446654310      -1.17698810440696
H         1.30948052427200      -2.91394277923675      -3.08290641663365
C         1.75748489891301      -1.30371157675918      -1.68965951965181
H         2.84267191395850      -1.35466539894420      -1.87462319060220
H         1.56677031648954      -1.93289777493089      -0.80629590173391
C         1.00031574469405      -1.87770201996137      -2.88385280344776
H         1.19593169814364      -1.28821676937104      -3.79404722056953
N         1.87162692294310       0.74509895470180       1.04124261781528
C         1.87420275549818      -0.69205678244031       1.53149721132625
C         1.97274899461806      -0.57700432985281       3.05051862673193
H        -0.08799117037392      -1.87628310166800      -2.70850621284825
C         1.37175623994158       0.15554041527911      -1.42561698570345
H         1.48676598653765       0.70963980172829      -2.37496754681325
P         6.54078852065023      -1.05253442847814       0.42292517446003
F         6.11788636017964      -2.54071034717006      -0.18638830717104
F         8.11644256692882      -1.45950803685329       0.69461050776154
F         4.90828816945776      -0.56301068431221       0.21449488468885
C         7.00986203248920      -0.64565390832342      -1.44783532143315
C         6.11256460949858      -1.87895892333541       2.23913693797725
C         6.84361112892010       0.82404229268382       1.15333188774495
C         5.92985134435051      -0.66015651465157      -2.57818807466543
C         6.81463958105742      -1.49569270552993       3.61169026908450
C         6.44144266536649       2.19142903448074       0.45373546939068
F         7.93376660940914      -1.57242792194037      -1.86787343376938
F         7.62063130856493       0.58982909161850      -1.54384558914713
F         6.39405493451484      -3.21383068456775       2.10511847308883
F         4.74299328568657      -1.80229801790427       2.49558903832552
F         8.14345328994913       1.01258784554423       1.52817448921121
F         6.07625329517553       0.84110549213534       2.32098476020751
F         6.53853795750105      -0.42762410594787      -3.77260357809839
F         4.98606299947298       0.31116777014714      -2.42035622924308
F         5.28790655288341      -1.84677068867540      -2.66571160936277
F         7.00704501974179      -2.61671481621337       4.35965646209318
F         8.01534664411092      -0.91368754962203       3.43594236965157
F         6.03888238136409      -0.66688833301000       4.36819312332823
F         7.47400029739813       2.75665862348072      -0.19553299266470
F         6.03663578974211       3.08810408671381       1.40794612459769
F         5.40155320840042       2.06499461725292      -0.41277724296735
