32
C8H18BF4N optimized with ForceField in AMS.
N         0.01033438687293      -0.00281739368279       0.01950887401437
C         0.93104261095020      -0.86217648993132      -0.78467594194469
C         0.90906279710808       0.85889055291583       0.84764271237176
C         2.33600986163347      -0.30860169372824      -0.65278286050934
C         2.33129546194516       0.35079275015315       0.69706304322184
C        -0.83610430872745      -0.85426933553304       0.91637172327553
C        -0.81483735566206       0.84478030922353      -0.90150820839134
C        -1.81877984652343      -1.78029443901624       0.17566750863563
C        -1.82581490057715       1.76378242338736      -0.19050117509130
H         0.64881694595369      -0.92126450107932      -1.85807935786559
H         0.96240001307721      -1.91122725001375      -0.40931739012536
H         0.62898683113266       0.87753722494216       1.92574239429868
H         0.90996547928988       1.91898042017960       0.50394096341949
H         2.52065544063742       0.44898247174138      -1.44633083837129
H         3.10527478477758      -1.10957133405314      -0.71349018408759
H         2.55020710008174      -0.40121734808888       1.48719287696554
H         3.07546521197698       1.17564265632667       0.74981046907855
H        -0.18481598196485      -1.49161216577813       1.55758887217490
H        -1.42111528492871      -0.22499459913013       1.62237186964449
H        -0.14915686213496       1.48578219741767      -1.52399927791805
H        -1.37690078362406       0.21272762854787      -1.62343053111849
H        -2.28410275253534      -2.47568151380177       0.90559130505312
H        -2.63643040756346      -1.19988440612949      -0.29709185014135
H        -1.30840016914431      -2.38785963546876      -0.59889662740299
H        -2.28152370893861       2.44908101896835      -0.93586148240425
H        -2.64853307980316       1.17735379257858       0.26567339932833
H        -1.34232794083876       2.38236745178178       0.59226942716951
B        -0.09023046079852      -0.96945055383044      -4.97038724475500
F         1.20160462390261      -0.72441354107212      -4.43328139100952
F        -0.95844817408515      -1.41825948844791      -3.93975579993744
F        -0.00085593836962      -1.96509491834255      -5.97909100608979
F        -0.60336238552002       0.22963146866408      -5.53214934838835
