54
C14H20F18NP optimized with ForceField in AMS.
N         0.01238750304705      -0.00510232628326       0.00227803226540
C        -0.83788458177903      -0.26216450287276       1.21743337867588
C        -0.83357881745687       0.25100306828629      -1.21623230010257
C         0.86162924243987      -1.22157400703605      -0.25307176278074
C         0.85943666124854       1.21192534716666       0.26053144519269
C        -1.89513012032448      -1.37515715173281       1.07439952635332
C        -1.89421660823296       1.36154111874580      -1.07743389168398
C         1.93161584065946      -1.07594056983531      -1.35383274850461
C         1.91028668267814       1.07334294830545       1.38020620516943
H        -0.20244780478726      -0.55740434778721       2.07984132565494
H        -1.35924530010967       0.66569339747859       1.54011881679706
H        -0.19548354124261       0.54748725702625      -2.07609150898921
H        -1.35245104416414      -0.67753783226780      -1.54098696673460
H         1.37271451683620      -1.55119458813976       0.67799963277041
H         0.22637667255898      -2.08040885216495      -0.55917479121767
H         1.38539659412127       1.53244857633885      -0.66547075053669
H         0.22142302600524       2.07426138278243       0.55003315747921
H        -2.46342576550423      -1.44998754963124       2.02569143702308
H        -2.63015364176014      -1.15844337870917       0.27495439326350
H        -1.42727201506282      -2.36396893228321       0.89796525492259
H        -2.46173859774298       1.43190801150977      -2.02952017625639
H        -2.62975402628978       1.14540335337647      -0.27832525739525
H        -1.42975907106409       2.35243223944413      -0.90391512953755
H         2.49347381563987      -2.03072545558596      -1.43192786100619
H         1.47578583806366      -0.88608397727998      -2.34569535796268
H         2.67107267119834      -0.28489253183564      -1.12154021084474
H         2.48952717617604       2.01881799252504       1.44303262285359
H         1.43484772234008       0.91839368200154       2.36912148890039
H         2.63636057711729       0.26150072070422       1.18110542138866
P         9.02938263299090      -0.53904498411796      -0.12230379293887
F         9.60575491841671       0.81573009005605       0.76933486006546
F         8.70921181355093      -0.12756577674827      -1.76554081539204
F         9.56538764428359      -1.24409037660864       1.35281909118021
C        10.81218428229575      -0.34594466177263      -0.86240591403420
C         7.47081289470823       0.51155294133083       0.34730107531369
C         8.30821910970814      -2.32702388246734      -0.25880030376634
C        12.01127830382472      -0.46116192329476       0.11754379139166
C         6.11395811183017       0.06358467689098      -0.23812366708728
C         9.29973680573929      -3.46728259198167      -0.56196141208351
F        10.91841081570173       0.90362170914020      -1.46097618012070
F        11.00546864361617      -1.28064174965267      -1.86002227282713
F         7.64759236701817       1.82469301827511      -0.07959680018968
F         7.33424546880780       0.51868081714384       1.72851461526908
F         7.38298469881523      -2.35268450085711      -1.28660413644024
F         7.63473671636987      -2.65117359408408       0.91113560560961
F        13.18607099542091      -0.42277053031299      -0.61311721215277
F        11.99869857299038      -1.64393861482766       0.82476752687222
F        12.04199611455158       0.59490952776955       1.01066730463014
F         5.16396952388308       1.02593671451071       0.05803758175312
F         6.17033145620167      -0.06039735805406      -1.61371690488918
F         5.68474502479655      -1.12272954833697       0.32294720604984
F         9.74551796285778      -3.39659662642061      -1.86747796792870
F         8.64485060225874      -4.67742137012192      -0.41397784719802
F        10.37341010085300      -3.46412662970430       0.30033588475641
