48
C12H22F6N2O4S2 optimized with DFTB in AMS.
N        -0.33419675205128       0.38110665192723       0.53443833597949
C        -1.10425558239134      -0.47252534343000      -0.42439033684000
C        -1.40484279108410       1.20625732608654       1.18619100541641
C        -2.21157703595608       0.42522117994611      -0.97367693004052
C        -2.40015993217588       1.52998123463919       0.07839314774894
C         0.62121016972610       1.25326864441244      -0.23178506910349
C         0.35695937573356      -0.45559540490612       1.57004177473952
C         1.53597346043197       2.11514533317208       0.63636916064681
C         1.46001517069740      -1.36093287779692       1.03500969753195
C         2.29674849159728       3.10230082670958      -0.24687695867803
C         2.00520793828708      -2.19144820971140       2.19847784400239
H        -0.43896891787697      -0.85962542673290      -1.19615707936857
H        -1.52366342574364      -1.30646264857714       0.14264505975466
H        -1.86383727711630       0.59328856945922       1.96442315947908
H        -0.96165947006370       2.08376803193193       1.65397151845593
H        -1.92475821398266       0.85013073971106      -1.93780285225038
H        -3.12504751657300      -0.15426470365433      -1.11651854644445
H        -3.41509059310503       1.53297616100460       0.47859304284564
H        -2.20356244186091       2.51338466199549      -0.35348207869059
H         1.21945785407984       0.59491166218337      -0.86706158374031
H         0.01472162134087       1.89098867630525      -0.87953612727196
H         0.75428173934226       0.23130735677136       2.31804076254363
H        -0.41821666412437      -1.06009952148323       2.04596738066250
H         0.95909425166270       2.67279857603347       1.37662681613861
H         2.25226577564372       1.48758461158727       1.17009459306361
H         2.27181983343176      -0.77031834199678       0.60229551232246
H         1.06909820849062      -2.02471900087680       0.25762611455320
H         2.89183855882232       2.57479542291250      -0.99346064155678
H         1.60525245858863       3.77244159960097      -0.75906074529617
H         2.96330267469726       3.69862616291652       0.37416573430104
H         2.36821372241631      -1.53805803908217       2.99136824314481
H         1.22342221241854      -2.83070135275115       2.60856418051197
H         2.82664500605963      -2.81751512263357       1.85228339822571
N        -0.24648937842898       1.58703477980137       3.87885126431678
S        -0.56751520550448       0.25788764103445       4.72339971077502
S         0.82502417432964       2.63465181838163       4.46055260390543
C        -1.43837462214191       0.70682016515126       6.32272681121187
C         2.51762130313741       1.81779405153581       4.47036528273628
O        -1.58253091869776      -0.43513059454957       3.94929344400485
O         0.60387002482068      -0.50018719143189       5.09978255809960
O         0.59415556086368       3.04849136837731       5.81819019818491
O         0.95453485384023       3.64487005639736       3.43636123807645
F        -2.22498637292060      -0.30189696871843       6.66165004670749
F        -2.18060375104756       1.78412205588665       6.13712000553249
F        -0.57215875607455       0.92067752904068       7.28842215760820
F         3.44007407953447       2.73938507183792       4.24349774975472
F         2.58396504339355       0.92296453274303       3.47523257478838
F         2.78090083003356       1.21445246433877       5.60713742521033
