59
C17H36BF4N optimized with DFTB in AMS.
N        -0.33273559189603       2.29319428440462      -0.25183861805518
C        -1.03409090916828       2.97334264511375      -1.39692014757499
C         0.05729432784681       3.33622920485810       0.76016776371007
C        -1.20168452269318       1.26120190446933       0.41439509750065
C         0.91278669402469       1.67467902958413      -0.82581903750080
C        -2.23411996516688       3.80241911134844      -0.96268855498296
C        -1.11470138234585       4.19101957944758       1.23125361177817
C        -1.82518914296826       4.85953471271069       0.05859964993931
C        -1.69294902105984       0.13775622161165      -0.49117069373741
C         1.73860021051574       0.83943136761612       0.15058954580962
C        -2.46627095014790      -0.87133618366197       0.36776441883232
C         3.02472274977027       0.37419352203164      -0.54344515673569
C        -3.02670776765452      -2.00725899013170      -0.49145310193423
C         3.86938371401903      -0.49336495111608       0.39460461308740
C        -3.81635020193485      -3.00259025120092       0.36413515330813
C         5.15468423675371      -0.96395238932402      -0.29351524412276
C        -4.39405445179771      -4.13314220097745      -0.48560675871755
C         5.99914713534615      -1.82948247962693       0.63981964125525
H        -0.28820044405439       3.61488412367362      -1.87750731689724
H        -1.33234568996727       2.19815795809195      -2.10492185084358
H         0.50710257925445       2.81768224692376       1.60886912494162
H         0.81739080908466       3.96605110709033       0.28665199276586
H        -0.62644522466060       0.85717266188197       1.24982810597065
H        -2.06573782752802       1.77992882536279       0.82521398229180
H         0.60380398362941       1.05393966247469      -1.67026661229725
H         1.52144109789048       2.49657322291412      -1.21336552220530
H        -2.63426767768007       4.28313292407390      -1.85945280623136
H        -3.01611508890260       3.16457800327202      -0.54671205196575
H        -1.82789496422204       3.59170069955044       1.80109712083923
H        -0.70467309026583       4.95033418870881       1.90279775051888
H        -2.72189307258566       5.35992351212815       0.42860773932212
H        -1.16932535103978       5.60309882671564      -0.40879707900449
H        -2.36867759780282       0.53920033442291      -1.25072278323621
H        -0.86350568941700      -0.36787202278604      -0.99586426995509
H         1.17395620888614      -0.03724493294701       0.47605091398071
H         1.99931362097562       1.42503288241548       1.03561676674122
H        -3.28731316486554      -0.35054526088120       0.86755267577276
H        -1.80243430044046      -1.28161568230206       1.13657949607855
H         3.60560033399003       1.24734675928771      -0.85951182408155
H         2.76658778404159      -0.19893765412334      -1.44032165587810
H        -3.68257661110675      -1.58898931120495      -1.26244905245429
H        -2.20512437591805      -2.52779966375563      -0.99793846762948
H         4.12306675552123       0.08197055938163       1.29140842607892
H         3.28335524367305      -1.36300366171609       0.71040144556649
H        -3.15927351850303      -3.42402108751126       1.13272913748397
H        -4.63074836550519      -2.47638446205814       0.87196982353999
H         4.89747749627837      -1.53787985095971      -1.19016321640122
H         5.73761107133972      -0.09237169410307      -0.61004885734574
H        -4.95315229167786      -4.82598490376041       0.14376332757650
H        -3.59551458785095      -4.68450328909631      -0.98499633845019
H        -5.06731308455524      -3.73408809361329      -1.24561882139945
H         6.28274313301462      -1.26717294440475       1.53043486217902
H         5.44094588862406      -2.71357593481511       0.95051404302483
H         6.90632428425184      -2.15278751221468       0.12930372642587
B        -4.26940137638074       2.42511514476285       1.66405135830272
F        -5.44808240982102       2.11860747049831       2.27953040705687
F        -4.12664103740532       1.70422184618201       0.43834509033029
F        -3.15183489439680       2.06737992319686       2.46987694232356
F        -4.15572039544531       3.79225121968608       1.36405483560454
