27
C7H13BF4N2 optimized with ForceField in AMS.
N         1.11409206023129       0.37059252455666      -0.37659163696814
N        -1.10967549816494       0.36624839058150      -0.37507872464485
C         0.00292092980656      -0.23961987063914      -0.83396375077718
C         2.49786276526827      -0.01862024205203      -0.63629772786077
C        -2.49322753005273      -0.02301187148202      -0.63635983396923
C         0.69099346939127       1.39799461614523       0.38789945771969
C        -0.68872854752010       1.39390355270153       0.38945151031161
C         3.09552387924136      -0.70197718112618       0.58817290265893
C        -3.09279548596331      -0.70508454148334       0.58779621181555
H         0.00399722241051      -1.12031761993312      -1.46465870474177
H         2.53943058780918      -0.72141551487907      -1.49674132675343
H         3.09686054797555       0.88055806235455      -0.89705354335883
H        -3.09173381105350       0.87642910660011      -0.89779293436848
H        -2.53424178017092      -0.72575516987236      -1.49682149399749
H         1.33619499166491       2.09553053885130       0.90710431465906
H        -1.33622686497408       2.08372415334105       0.91208480473378
H         3.09243590676676      -0.01018999467028       1.45684540619644
H         4.14232004522581      -1.00415497077106       0.37421425510808
H         2.50595557025064      -1.60894179274186       0.84109091328164
H        -2.50371181753230      -1.61189069249378       0.84220596273910
H        -4.13941141260634      -1.00714027585277       0.37270082465570
H        -3.09078781745178      -0.01239169967312       1.45578548688889
B        -1.50935450585953       5.02066745172578       2.26091188057771
F        -0.72184507256666       4.12942304285831       3.03756760742205
F        -0.68251109834097       5.67746824942055       1.31124762103042
F        -2.11219429542951       5.98465317451091       3.11168096043812
F        -2.52252661035543       4.29248845132263       1.58309789490340
