46
C14H29NO2 optimized with DFTB in AMS.
N         0.10488458243149      -0.13504581239501       0.10813898299049
C        -1.24494476500100       0.48171852054524      -0.05016209472677
C        -0.03073635914173      -1.43291334268232       0.85745598780264
C         0.99667842951611       0.73108219557249       0.95736542158243
C        -2.20622469996915      -0.44916490200920      -0.78344598013762
C        -0.98298097679748      -2.41093969699814       0.19031188972163
C        -2.35382750027411      -1.77922679201363      -0.04337539619741
C         0.75414938164480      -0.34999932423666      -1.21625078683364
C         1.31346319547302       2.10078259230156       0.36431830762755
C         2.36388871083605       2.83104146361727       1.22478927703159
C         3.79961438320351       2.69127505857641       0.70094736860190
C         4.36837491004621       1.27182788314964       0.80034402487538
C         5.86232573432394       1.25510553597347       0.48068443992464
H        -1.12932452581601       1.41724152940928      -0.60146816291086
H        -1.62232997763002       0.70475420911237       0.95243602251336
H        -0.38445367731060      -1.18036991311574       1.86146017138081
H         0.97361401709431      -1.85814866961771       0.91490720601851
H         0.50323562751978       0.85137862748259       1.92570780395733
H         1.91137330056605       0.14756613164947       1.09444084176411
H        -3.17528633611378       0.05371152966046      -0.84492576658033
H        -1.85474673669936      -0.62273454571802      -1.80379794424066
H        -0.54809093794756      -2.77318652838035      -0.74392187788860
H        -1.08161477186774      -3.27101226560009       0.85741997459549
H        -2.84916651030584      -1.60454365623270       0.91818194843531
H        -2.98114206001777      -2.45465602949968      -0.62997597362002
H         0.59230139460433       0.52305960791649      -1.84511999771765
H         1.81417796581218      -0.51783861298326      -1.04119693340771
H         0.34149241341732      -1.23428365766722      -1.69035608934311
H         1.68954537917589       2.00281136380995      -0.65669018418813
H         0.40268683551210       2.70626835761861       0.32692667994458
H         2.11308273642062       3.89639418465586       1.23592897932086
H         2.31031664209466       2.47332197093390       2.25836518829942
H         4.42978203923932       3.36834391129197       1.28905486741699
H         3.83776074210559       3.03075260738521      -0.34016639458800
H         3.85448359319882       0.60726763468090       0.10114342798191
H         4.21100139253890       0.88148233766347       1.81081681324237
H         6.04091786588330       1.61752358814484      -0.53303577175172
H         6.41478353629521       1.88812115967177       1.17759483579991
H         6.24363563470199       0.23725632087388       0.55930671916577
C         4.13983130210250      -3.48198684022078      -0.38174717496269
C         2.88579641605285      -2.58700045008991      -0.27687273908298
O         3.00147499773008      -1.55320153387679       0.43091991478918
O         1.86398851451241      -2.94938518978981      -0.89035457257881
H         4.97362682957616      -2.88607256082266      -0.75024411016850
H         4.39131931516341      -3.85284240339194       0.61112578551704
H         3.95485371709921      -4.31873237785551      -1.05218097057604
