35
C11H20N2O2 optimized with DFTB in AMS.
N         1.51947002213878       0.70099556003942       0.47233640080357
N        -0.33423012647175       0.26342157110330      -0.49281554862513
C         2.90258332781664       0.59366505044325       0.91764427435305
C        -1.37071519571016      -0.48776796937119      -1.18563455198854
C         0.88065769865214      -0.23464513152160      -0.23308985800931
C         3.83361121924447       1.33502055604421      -0.04584159011894
C        -2.25341303168578      -1.24314518416138      -0.18580662621006
C         0.71507739813143       1.79829844131271       0.65175703372140
C        -0.46782933691456       1.51665179777135       0.04787060324845
C         3.82851721574859       0.70233390410339      -1.43565615133533
C        -1.46120127577995      -2.27110895333859       0.61914926643840
H         3.15398257706309      -0.47083769377389       0.94175007052424
H         2.97364981300274       1.01664500561888       1.92371267642330
H        -0.87230727565750      -1.19232161386386      -1.85743869011908
H        -1.97143486476840       0.21153647214245      -1.77375605339578
H         1.18126985956749      -1.36580876884066      -0.57134788210391
H         3.53605039537784       2.38747306634412      -0.10768285719591
H         4.84319181159567       1.29219531577634       0.37318554571786
H        -2.73184670898258      -0.52604807277190       0.48908123974560
H        -3.03881534116629      -1.74731164994540      -0.75669008408874
H         1.04048393343107       2.67018642610519       1.19234155280678
H        -1.37022952242679       2.09549865333770      -0.04654406753545
H         2.83954695111960       0.78408700215369      -1.88876668708606
H         4.09071947813908      -0.35337374804881      -1.36666675676095
H         4.54994086099265       1.20781555651256      -2.07728212072015
H        -0.73880501846271      -1.77498742091251       1.26764624313153
H        -0.91932311224588      -2.94353121387620      -0.04636298360665
H        -2.13941913465037      -2.85668912149689       1.23944415780807
C         2.91053810301216      -4.42481156932901      -1.12109423371579
C         2.51488419195536      -2.99171029083334      -0.74165708313989
O         1.30956474978424      -2.67492353883797      -1.00339678164316
O         3.35102661186928      -2.25141767212306      -0.22194970730347
H         2.31932946169189      -5.12272688717414      -0.52977822717612
H         2.69104286523698      -4.59179519352073      -2.17450408818677
H         3.96929866045153      -4.58601140296742      -0.93076399555707
