44
C14H23F3N2O2 optimized with ADF in AMS.
N         0.42598504496737       2.06108953708359      -0.58873790170561
N        -1.54802046478561       1.18617719926689      -0.73789664910953
C         1.85024008888690       2.29785633474539      -0.86234136358470
C         2.72643048326480       1.35641467183505      -0.03796160535637
C        -2.64648066736666       0.34994641984388      -1.25236229574098
C         2.46208471989141      -0.11764705721267      -0.32784608411020
C        -2.89171564166784      -0.85491815032646      -0.35018331259334
C        -0.38518254729051       1.34847727670077      -1.38439338282878
C        -0.23119654210718       2.34939631427253       0.59322788458939
C        -1.47830917835239       1.80072410419855       0.49618436841416
C         3.34160055387836      -1.05497294551824       0.49726224541479
C        -1.65872450391334      -1.73920900502129      -0.17350160568622
C         3.04055604451059      -2.52179821166509       0.19840668052747
C        -1.97168296426548      -2.98953638275973       0.64372978436240
H         2.06018165427581       3.35684340867324      -0.64648958570505
H         1.99240720767817       2.12234926844963      -1.93865054394145
H         3.77752061458386       1.60472154753625      -0.26892373957314
H         2.58304688874686       1.56751659011948       1.03790395068830
H        -3.53954899998980       0.98753195775790      -1.34633714213079
H        -2.31587230164013       0.01997083536013      -2.25041940510953
H         2.62614214696535      -0.32320153005940      -1.39837458349623
H         1.40401095982145      -0.36458494400059      -0.13070385117772
H        -3.70622857180806      -1.43717107333370      -0.81722631366502
H        -3.27568108093919      -0.52571711449765       0.63411969077061
H        -0.17137852075231       0.86648553519363      -2.36895689123975
H         0.23565522750164       2.91920156909927       1.38747125991562
H        -2.31009989489766       1.80215731604585       1.18999294346795
H         3.19166676709750      -0.84699960492485       1.57358371787996
H         4.40406542823237      -0.83718583087624       0.28232671702310
H        -1.24167940819449      -2.01288375572292      -1.15929301438632
H        -0.86590059391528      -1.16382341955871       0.33767840141393
H         3.16335469246973      -2.73574430527234      -0.87448631959654
H         1.99652489142588      -2.76461732380841       0.45249571293879
H         3.69938177553666      -3.19157699161013       0.77174020413104
H        -2.30240340171631      -2.73140823162986       1.66386820835596
H        -1.08711987034025      -3.63825087191174       0.72634085665895
H        -2.77452322690692      -3.57799484540710       0.17043506930556
C         0.66250522922008      -1.15041807784372      -3.37158548340022
O        -0.31322045882267      -0.35094929424726      -3.53646371780409
O         0.78043994660747      -2.15914303660878      -2.66194567078766
C         1.92401991789485      -0.72267822923556      -4.20469979200836
F         3.05530813594104      -1.41291860637043      -3.88610753592844
F         2.22464082202769       0.61690237601816      -3.98844638211018
F         1.72784698714626      -0.86697378097736      -5.54709949928175
