64
C18H26F18NP optimized with ADF in AMS.
N        -1.35777451302791       2.16824757327306      -1.21622672277227
C        -1.90370770067443       1.41534681160227      -2.43267580654696
C        -2.60331105416344       2.74960976083124      -0.56413949508182
C        -0.70122118689604       1.20075762175483      -0.25209293897483
C        -3.36875728440725       1.07284423282404      -2.11648770718808
C        -3.65787572144061       1.66885879378370      -0.72414621712802
C        -0.41301141324388       3.26343888464838      -1.66582106666207
C         0.63293507559706       0.63327231461590      -0.70531773719079
C         0.12130340978499       4.12378564290810      -0.54195430738529
C         1.08730713762670      -0.48479254835117       0.23661846254671
C         2.43003867114359      -1.08503635676536      -0.17533055599941
C         2.89342039487019      -2.20719299769423       0.75192129896720
C         4.23144688467919      -2.80737840453632       0.32821598302115
H        -1.26283567209390       0.54276920096326      -2.60269482581079
H        -1.82726718121634       2.09624396839021      -3.28796001680211
H        -2.86889394797473       3.64062352016889      -1.14637711954250
H        -2.37110379976695       3.02433825633579       0.47213218719709
H        -1.42842679891026       0.39067175165032      -0.09528733081165
H        -0.58641271015452       1.73816060313832       0.70109927131490
H        -3.55223598242869      -0.01025755385866      -2.14445785491458
H        -4.00930889144722       1.55077047673445      -2.87007653644171
H        -4.66271301152064       2.10879211519349      -0.66487915901195
H        -3.57779622705689       0.91031013887326       0.07021974719253
H         0.39257756494334       2.76737479279404      -2.22585329381939
H        -0.98926546724194       3.86872483345726      -2.37394770011033
H         0.56092633946279       0.23023872142780      -1.73007727711013
H         1.40138927853163       1.42395062882934      -0.72418526730336
H         0.77279105219912       4.88705596565792      -0.99279296954068
H        -0.68357689365124       4.66402536880768      -0.02304655081843
H         0.71884985001782       3.56222211154256       0.19109228512250
H         0.32110409833594      -1.28236479568575       0.25651243981734
H         1.16099774376286      -0.09365968183185       1.26861890924326
H         3.19714490483962      -0.28788909910463      -0.19755755082206
H         2.35359075211406      -1.47303341607600      -1.20871592210827
H         2.97062316262966      -1.81649816927315       1.78322169320325
H         2.12139203539145      -2.99852940860743       0.77563139505988
H         5.02392394355475      -2.04149569227902       0.32523732716036
H         4.54568183229666      -3.61349972667401       1.00805193941722
H         4.16965352779309      -3.22899332866480      -0.68800038407098
P        -3.47085693492120       5.23203144823900      -4.43617491088815
F        -4.28443593336514       4.07580537987893      -5.31432797292274
F        -3.13482743681322       4.04132286647760      -3.25129484588646
F        -3.75071037543780       6.42241668971035      -5.54863522974625
C        -1.84067557921996       4.70342874036027      -5.44733486618284
C        -5.24520312763779       5.61202031662762      -3.61963514505864
C        -2.44646399144666       6.47967811553549      -3.23216088071618
C        -2.02709388091054       3.89688202452505      -6.77457998215910
C        -5.83978950605488       4.59780590312555      -2.59684488644078
C        -2.32165127005002       8.00489599083151      -3.54212049715950
F        -0.98314047888570       3.88648195879669      -4.70419375099718
F        -1.11806817710454       5.81507729878768      -5.79661016796875
F        -6.16704651255474       5.66479817946746      -4.63936265985112
F        -5.30869005734035       6.83099067121935      -2.98334718238269
F        -1.12917702334260       6.04402603522636      -3.12717266343010
F        -2.95197408333038       6.39121197827092      -1.94762762105301
F        -0.81878682301705       3.80740870284694      -7.40691968804257
F        -2.89066144674083       4.48499336108179      -7.62244137315616
F        -2.43476626683385       2.62443900715115      -6.52589611942957
F        -7.11686577648161       4.94767385343087      -2.28966163392137
F        -5.86880252928180       3.32995208998225      -3.07835093577027
F        -5.14062208718821       4.58639971375414      -1.42527727834925
F        -1.63891318399525       8.60431576213788      -2.51793089835462
F        -3.51715305717867       8.61504873159858      -3.64770299052992
F        -1.62363824122485       8.21948183493281      -4.67777035099769
