41
C11H22F3NO3S optimized with ADF in AMS.
N        -1.43379724399607       0.42213470165005       0.23377787117178
C        -1.85074562913964      -0.75447181101663      -0.61829165097224
C        -2.47868840938870       0.42122622663584       1.33768389360978
C        -0.05611459710790       0.22696420160353       0.83955434826408
C        -3.37835125565296      -0.70448554097602      -0.64819872556239
C        -3.78927856438532       0.04113147500015       0.65003916979712
C        -1.52669070786382       1.69136826411376      -0.56565974175450
C         1.09756883521129       0.34892958057577      -0.13322384018174
C         2.41804244458017       0.09020479857533       0.59719216972520
C         3.62694537019797       0.24052227975336      -0.32384118597743
C         4.94476651596024      -0.00901108808937       0.40300125783222
H        -1.48414940448187      -1.65159289786592      -0.09914538708425
H        -1.36580100149520      -0.68273275000727      -1.59961688545953
H        -2.46538645946804       1.39811995394124       1.83661005276836
H        -2.15433747161492      -0.34726810985325       2.05469303579375
H        -0.08412793005286      -0.77441855714400       1.29948157228075
H         0.03755716741065       0.96807848151157       1.64217668379376
H        -3.78543570264755      -1.72430855173427      -0.69311724212269
H        -3.73981139606657      -0.17321501986171      -1.54005183995246
H        -4.39327493041863       0.93079072870067       0.42145283395934
H        -4.39128544014019      -0.59010544257113       1.31872987848566
H        -0.91203455396117       1.58627033525542      -1.46617096674560
H        -2.57447975051674       1.85291172454098      -0.84343136994090
H        -1.17076018454343       2.52526056945474       0.04628439653362
H         0.99064407491323      -0.36493677459094      -0.96986641529474
H         1.13264909916497       1.36720266262955      -0.55322602896988
H         2.41155494932041      -0.92570608684007       1.03550128932443
H         2.50752638185412       0.80168660958256       1.43798890464603
H         3.62590049729511       1.25970578335018      -0.75106451583484
H         3.52811206541382      -0.45866465088175      -1.17495340465500
H         5.07371520959396       0.70264772181300       1.23342947815533
H         5.80282605745753       0.10460461604705      -0.27560682439967
H         4.97808471694812      -1.02695864863500       0.82384772596405
S         0.21962022692782       5.14872473172249       3.18611602583636
O         1.65000078356381       5.00366308406866       3.48162599203506
O        -0.13481107485490       5.98961117890269       2.03473696287192
O        -0.69530585898684       5.18331901541066       4.33313172375848
C        -0.16670539245961       3.45180348166903       2.48074630852981
F         0.06508111868146       2.39536564445240       3.32769746196535
F         0.56703020666155       3.18199500505430       1.33818310835570
F        -1.49788417231329       3.33464887635236       2.10149906864992
