43
C11H21F2N3O4S2 optimized with DFTB in AMS.
N        -0.95132817775884      -1.66836186908972       0.04662372137109
N         1.20049462997609      -1.70054659330756      -0.06143319690658
C        -2.31289966449182      -1.26501361811513       0.38084978322867
C         2.60161119114413      -1.38268161304488       0.19425998132857
C        -2.74560289524672      -0.08493562909574      -0.49725028480328
C         3.05397562484025      -0.15970442202290      -0.61143421334112
C         0.16172793739139      -1.18229422184251       0.59631067068320
C        -0.61711733209773      -2.48669045939384      -0.99508105110625
C         0.73928837718227      -2.50489864028045      -1.06674894305353
C        -2.04685557228455       1.22005937669301      -0.11043496204225
C         2.35652653260248       1.13011351922513      -0.17350851407235
C        -2.40704378801533       2.34058122790870      -1.08369203175380
C         2.82912283557048       2.31724145030906      -1.01071836331225
H        -2.96155696207557      -2.12684878471004       0.20580930622091
H        -2.34262399932535      -1.00349319273586       1.44275157531484
H         2.71618760046664      -1.20569401469499       1.26816724077113
H         3.19203964951777      -2.25824096857892      -0.08712370767163
H        -3.82836272307171       0.02780749434002      -0.39183131480450
H        -2.52629822695308      -0.32379001892272      -1.54034670405752
H         2.85967210849676      -0.33492484262678      -1.67083115490002
H         4.13513535910624      -0.06501129906737      -0.47372558471780
H         0.21425082404297      -0.52889878598864       1.44910349738954
H        -1.35857320794876      -2.96498553942787      -1.60951413817690
H         1.39603471457230      -2.99527032674609      -1.76317368906901
H        -2.32864182956462       1.50346223910009       0.91027378052772
H        -0.96323551343934       1.06976469283456      -0.13231066889094
H         1.27605199306884       1.01517133270367      -0.30166749423583
H         2.55527051960484       1.31656101488310       0.88854672943515
H        -3.48451477117068       2.50960059443130      -1.09446295961780
H        -2.08221911670315       2.07876340729697      -2.09034532958788
H        -1.91045693735571       3.26414036338955      -0.78614330225645
H         2.59491380146744       2.15237858415853      -2.06221735574943
H         3.90608204222397       2.45629616861919      -0.90751561367170
H         2.32569484774900       3.22564881624514      -0.67979754762156
N        -0.32002180493455      -0.44658297148223      -4.72436409997330
S         0.55843857256940       0.07170911945833      -3.52206923491656
S        -1.11328882082197      -1.80465639438473      -4.49116309122932
F         1.72838812776308      -1.07584796980886      -3.33948575297978
F        -2.26567995942186      -1.40451896828859      -3.38661680408355
O         1.27525705461912       1.23127166665146      -3.93451690241170
O        -0.06054064988828       0.09085807588037      -2.22062584735735
O        -0.39699778691394      -2.85557016390374      -3.82741528716735
O        -1.84639550019190      -2.10544841096805      -5.66958383503159
