39
C9H20F2N2O4S2 optimized with ADF in AMS.
C         3.91294683518070       0.66055764816915       1.10670483040991
C         2.70539908877038       1.48569234517854       0.71346990504533
H         1.75536758316530      -1.10548561506845      -0.64428553128271
H         1.86407160487725      -1.59743674603826       1.07739181219523
H         4.04042481498915      -0.50242238802704      -0.72323746829024
H         4.20818015778560      -1.49026616899849       0.76026444409537
H         3.92863145068333       0.46022664092299       2.18988173872116
H         4.85104464108286       1.16931442513778       0.84155825505116
H         2.46814539777611       2.34124980328442       1.36050509533125
H         2.78552071854104       1.82217373158872      -0.33312844723060
H         0.27669604122068      -0.37051805540991       2.23206108127632
C         1.03218721572156       0.41963448967932       2.17290343847552
H         1.86025729249586       0.16723684595836       2.84654732983296
H         0.59781668901242       1.39250369914871       2.44030840549353
C         0.44828131132991       0.97375786462207      -0.16980210048108
H         0.32246294798740       2.04747568268528       0.04534622702118
H         0.86166730254590       0.87375944683389      -1.18607596524352
H        -1.33286466278083       0.44573868537998       0.94477787737669
H        -2.38484208331873      -2.83254926430079      -0.57974643582297
C        -0.93268680305682      -1.22604643967044      -0.37198367173058
H        -0.48359518797350      -1.40227141599638      -1.36678782709934
H        -0.34334873446755      -1.79371697314342       0.36440609437253
C        -2.36261844948821      -1.75895477260108      -0.34492611847177
H        -3.00057624340925      -1.23317854008254      -1.07286770409748
N         1.54512956911168       0.50268380586361       0.76496935055401
C         2.16878295586740      -0.84552026137888       0.33611602414069
C         3.68827881282511      -0.63146871924290       0.31267600567950
H        -2.79883227043564      -1.63107463045058       0.65788681102505
C        -0.89502507046003       0.26878435160503      -0.05192749053237
H        -1.55421167185265       0.80339836717459      -0.76143041768160
N         1.83364413796888      -2.68206357609876       2.97256443527618
S         0.45320795042212      -2.71927965993776       3.78622218176630
S         3.26051228439041      -2.37406308834933       3.62708958878618
F         0.47295034906153      -1.32016099434284       4.69100580126740
F         3.36165467486558      -3.35543625354811       4.93104015533319
O        -0.60588185279831      -2.48081990236775       2.81231060042751
O         0.33328517512744      -3.77205572049234       4.76839378125389
O         3.37194013116739      -1.02637900053469       4.17601612586817
O         4.28157588986853      -2.83636943325170       2.70424727598805
