34
C12H16F3NO2 optimized with ADF in AMS.
N         2.35607887717182       0.58646991483957      -0.13197003201905
C        -0.07838802003489       0.20714019060073       0.06034401465180
C        -1.37137964637007      -0.19386579262930      -0.64519217887135
C         1.13378285479302       0.21922061190389      -0.86553400292701
C        -2.55483423860612      -0.19583883842427       0.32318775548201
C        -3.87671389100937      -0.59033670445801      -0.32737582613289
C         3.07285966185919      -0.37343991750041       0.51279305895938
C         2.68097382277581       1.90130826187379       0.03458341426947
C         4.12210339930771      -0.04737192609891       1.32988183990023
C         3.72188506669817       2.27620797140936       0.83779118981443
C         4.51067770844406       1.29680173714621       1.47686887336940
H         0.11863089920822      -0.48825552284394       0.89611631652031
H        -0.19638377039877       1.20968294583824       0.50982362688770
H        -1.25769348629374      -1.19849495455942      -1.09407082524785
H        -1.57638360231197       0.50166880007770      -1.48043155463102
H         1.30230506834214      -0.76905265948278      -1.31977615902029
H         1.00652483761260       0.94096381356383      -1.68669382467229
H        -2.64838727877547       0.80971240205468       0.77236292063975
H        -2.33064104387827      -0.88669455988344       1.15622124697149
H        -4.14284245725247       0.10405540538920      -1.14031979415083
H        -4.69623184715745      -0.57779101636683       0.40703985768425
H        -3.82289089100454      -1.60466314464999      -0.75435455905828
H         2.76129679476863      -1.40084510543644       0.33459841073670
H         2.06633783218627       2.61507927139596      -0.51049925934572
H         4.68102587702251      -0.84390598596124       1.81911231953264
H         3.96833940441620       3.33242789912216       0.93850261213233
H         5.22216060269627       1.58110930168146       2.24667042502472
C         6.98085035078911       1.27928756561505      -0.62777920476677
O         6.44789531608769       1.68405320254635       0.46241804579701
O         8.07266905287636       1.59481295027691      -1.10537927832169
C         6.14059744109778       0.24547319087521      -1.45347260157952
F         6.72046237050277      -0.07874883765701      -2.63206240724366
F         4.87635623704941       0.71677659118007      -1.75450062193126
F         5.95622520818740      -0.93341472313837      -0.76300414995416
