37
C9H20F6NP optimized with DFTB in AMS.
N        -0.16627623045699      -0.20144343244658       0.16185444270703
C        -0.52117026199147       0.63669190884089      -1.03048818492197
C        -1.18270983322838      -1.30722332771417       0.28835733357178
C        -1.93638195245476       1.20132545723370      -0.96216477837984
C        -2.61673267959770      -0.80278431317136       0.35742980792706
C        -0.13316061174069       0.60564389857240       1.43236786930620
C         1.18042063911927      -0.81626668688908      -0.12625835752456
C        -2.95858006512312       0.07139494259787      -0.84473643020462
C         0.87109891147849       1.74522593927973       1.44417846134507
C         1.74786466519573      -1.68576291137567       0.98513237707567
H        -0.42626958896881      -0.00881964491285      -1.90871457530001
H         0.21428705294326       1.43945769869822      -1.11076202943612
H        -0.94977463226402      -1.86895761341303       1.19142673812162
H        -1.05166166076583      -1.95302382461335      -0.58517732070852
H        -2.10578630930663       1.76961631062308      -1.88067956886358
H        -2.03430634541154       1.89110589092735      -0.12032800730156
H        -2.78330947561333      -0.25487364760915       1.28608165415976
H        -3.26009393027519      -1.68532068042614       0.38161774292125
H        -1.13637295706731       0.99772222319356       1.59467386293837
H         0.08255081999419      -0.09250973161101       2.24031637811063
H         1.05809635866909      -1.41339153081356      -1.03424658516523
H         1.86554403111595       0.00534811346277      -0.35001781203271
H        -3.95924147439811       0.49282041892120      -0.72651056867134
H        -2.94597334179524      -0.52827527899702      -1.76136640608445
H         0.79193823645222       2.22884564196758       2.41792188489257
H         1.89451978470650       1.39279202848944       1.32608423061009
H         0.66080734057226       2.49125607335671       0.67858727021186
H         2.69918816226181      -2.08507570336609       0.63327469177336
H         1.92851598339597      -1.11866266280913       1.89507746452633
H         1.09034221131113      -2.51863215875444       1.22199303774904
P        -1.59869397496120      -1.92628461125493       4.01687294287154
F        -1.24874170625221      -3.39353302763415       4.61922451483605
F        -2.32330395174706      -2.62772137931148       2.69050363183412
F        -3.02339036905524      -1.86992966373221       4.79163376861241
F        -1.91142360654241      -0.42365138043465       3.32172103170929
F        -0.83100109283317      -1.17885083236630       5.24592945641255
F        -0.13756546966550      -1.94553612170814       3.15055896427087
