34
C8H18F6NP optimized with ForceField in AMS.
N        -0.34946368965734       0.32901787803115       0.03872942255981
C        -1.42610853571390       0.58137222201817      -0.95031907200312
C        -0.76641473195208      -0.90882864735637       0.75559342231018
C        -2.70206931455292      -0.00804348443535      -0.38378018481501
C        -2.22864235551277      -1.19752830826118       0.41731440591779
C         0.94954774151636       0.14813461972077      -0.67703443853676
C        -0.27873224401442       1.47938425501502       0.97872402026821
C         2.16448178620513      -0.05122109846186       0.25816038988034
C         3.37751052441258      -0.55926308809425      -0.51559491780920
H        -1.22101302282078       0.06524240152785      -1.91703900604470
H        -1.55666917948552       1.66350394164954      -1.18105023931635
H        -0.65170051584978      -0.81638238026461       1.86008500808624
H        -0.16071068319181      -1.79323993953033       0.45250159116378
H        -3.41111233684098      -0.30704644751936      -1.18546100551188
H        -3.19499651832925       0.72912309059770       0.28705403355735
H        -2.84278331440272      -1.33283685996154       1.33399120485272
H        -2.29791133015739      -2.11698748262014      -0.20631118505995
H         1.15276352704009       1.03294418813527      -1.32332402088697
H         0.88084592027850      -0.73064847200954      -1.36025349457332
H         0.07654105545165       2.39687670471162       0.45854780820160
H        -1.27488635442176       1.69876078272263       1.42331132582699
H         0.41081760913669       1.27255402730868       1.82538582398003
H         2.43722492004793       0.91708621772031       0.72985191101593
H         1.93072886268238      -0.77909137973999       1.06327467504309
H         4.24738455330588      -0.64516502819955       0.16933628878101
H         3.16682534736048      -1.56140779771226      -0.94625397397336
H         3.63683152368198       0.14521890147723      -1.33457134618654
P        -2.23083839598885      -2.08562295489188      -4.68314429347243
F        -1.17676595712572      -2.33863634909057      -3.35022155854019
F        -3.09373000160960      -0.85881148944981      -3.84679910041935
F        -1.13822178167006      -0.89976344332341      -5.27555219116753
F        -3.40974784825993      -1.85630630899101      -5.91154792361245
F        -1.44254985610797      -3.19555902815569      -5.73113278841256
F        -3.15145034485412      -3.36184079496723      -3.99410776380342
