49
C13H21F6N3O4S2 optimized with DFTB in AMS.
N        -0.41295993077332       1.83514083292519      -0.53283875808315
N        -1.37107894351030       1.80415990254558       1.39328863844490
C         1.82227691870710       1.40091173360626      -1.48117367007783
C         2.26014642439435       0.17356588520395      -0.67909946993174
C         0.30909685645240       1.41814504306811      -1.73113916893695
C         3.75121553787540       0.24263204417648      -0.33615182852876
C         4.16731508822857      -0.94895641326761       0.53096169778695
C        -0.81402775172793       1.03926939970335       0.45770006653968
C        -0.69500624835265       3.13440617167653      -0.20571938171830
C        -1.30355064096212       3.11323975284485       1.00897379425050
C        -1.88887453249375       1.33089683330476       2.67285147606027
C         5.63800506874349      -0.85447036618328       0.93290188519832
C        -3.39819267059145       1.14365190812600       2.59495687424533
H         2.31893730629404       1.40465632878189      -2.45576263766480
H         2.10497097268593       2.31205311568852      -0.94823706119288
H         2.04756923705305      -0.73432002524328      -1.25548664812756
H         1.68619711886350       0.12453555411411       0.25000699696551
H         0.06065175935649       2.13099600881409      -2.52155856399615
H        -0.05326463572171       0.42695378816459      -2.01860827793158
H         3.94861929286927       1.17221444385361       0.20618777129845
H         4.34228832017023       0.25753499272441      -1.25856604066434
H         3.99558574548742      -1.88134284268900      -0.01879529997479
H         3.54699603907759      -0.97176174927179       1.43257790540655
H        -0.70138466806647      -0.02935878384591       0.50377455377965
H        -0.43132121342025       3.95714969394939      -0.84612133454480
H        -1.65377664555524       3.91360021318308       1.63753550848356
H        -1.38097931464795       0.39241660594320       2.90656926089344
H        -1.61820550443752       2.07628718783837       3.42504306409719
H         5.81576173017540       0.05459382308330       1.50848526659211
H         6.27779087213386      -0.83756445414809       0.04904561519540
H         5.91367664192734      -1.71300822827999       1.54579807617305
H        -3.88596879800350       2.08624683477375       2.34805181910985
H        -3.76473669617466       0.79976721132335       3.56087755761038
H        -3.65391639962578       0.40472168472494       1.83559265539393
N         0.54311581207771       2.94752581728200       3.24578791004049
S         1.68078800147880       2.04628162450141       2.59071819407634
S         0.86186063624335       4.47357857079348       3.65935599174433
C         3.13954586224735       1.80174088345396       3.74736220060457
C         1.50463410559498       5.44526497762619       2.18687062772668
O         1.10408817701883       0.71771684842782       2.46605626731913
O         2.25732783723546       2.61089529760613       1.38345493010918
O         1.89294651763024       4.59942848878308       4.65481625819293
O        -0.42968575607615       5.06396971392633       3.90632546150209
F         3.78099953936026       0.70400632607567       3.36903876100288
F         2.71845599802694       1.64497607103568       4.98769195066428
F         3.96567489733193       2.82378199215678       3.67912044443136
F         1.31945156028435       6.73142136638272       2.43090050155196
F         0.80460975412395       5.12683672328921       1.09357107253223
F         2.78224538799119       5.23105492674682       1.95784341265014
