47
C13H26F3NO3S optimized with DFTB in AMS.
N        -1.56820948543949       0.51151476043676      -0.44737904169932
C        -2.02106393875635      -0.91568916236969      -0.44950072771612
C        -2.53772786012071       1.16395564673117       0.49770945167653
C        -0.17302205098302       0.63731749106749       0.10181467301493
C        -2.39655938115826      -1.21585345033806       0.99960285618044
C        -2.75705044120949       0.14642030721607       1.61161389758542
C        -1.68361646799818       1.09635273724636      -1.82128771824772
C         0.91960724166177      -0.01003749410671      -0.74216834929911
C        -1.26326789638542       2.55678646575966      -1.89891385304663
C         2.25914081740329       0.15666633725209      -0.01199295906515
C         3.40958842007952      -0.45136242500554      -0.81816642211589
C         4.74203839954214      -0.28849929843360      -0.07946831293856
C         5.89935781121035      -0.88269801031521      -0.88005726474267
H        -1.23448380407039      -1.55860538247374      -0.84195796710002
H        -2.89566397481178      -0.98237148279646      -1.10138396260262
H        -3.45994068415312       1.35122458860914      -0.05751710853442
H        -2.12294428047755       2.10489884461039       0.85445994157548
H        -0.18555144500064       0.20071440909432       1.10103168193988
H         0.02591638244093       1.70428883481034       0.20780231348029
H        -1.55792171293895      -1.67152294360543       1.52951689498630
H        -3.23671161293661      -1.91183061893251       1.03147951647338
H        -3.79469728662040       0.17520325656400       1.94731084233148
H        -2.11353126434000       0.37622979185194       2.46318813586688
H        -1.07542008552570       0.48166265033847      -2.48963313447671
H        -2.73087519856934       0.99291474123280      -2.11885954493306
H         0.72533172800733      -1.07571476385439      -0.89796450518466
H         0.98498842951099       0.46871303532759      -1.72336814701676
H        -1.50757249035484       2.92315198788466      -2.89562058567612
H        -1.79053891903212       3.16177592592141      -1.16313900024905
H        -0.19413481138478       2.67595600702103      -1.73890688834438
H         2.19926434882679      -0.32850567351760       0.96749229864616
H         2.44911912748743       1.22062960047616       0.15396145001715
H         3.47020036790003       0.04064460312641      -1.79536522002622
H         3.21383985241728      -1.51556295071763      -0.99260165641133
H         4.92994048218399       0.77521449780669       0.09840266189634
H         4.67984744906780      -0.78469222289086       0.89468806229160
H         5.99092933822737      -0.38552578881858      -1.84681853413135
H         6.83448122732447      -0.75559045380136      -0.33442712848115
H         5.73929591411837      -1.94822779398466      -1.05179507861589
S        -0.40712527371431       3.37600587389095       2.32846546066110
O        -1.08427266898496       4.27593346561117       3.22163019151747
O        -0.64358254131622       3.61665973376541       0.90335704834792
O        -0.49024931356795       1.96039873320711       2.67961251027211
C         1.40015078271103       3.74487590488303       2.50377078224183
F         1.83635205886055       3.50257852736065       3.73154395244547
F         1.67483283900771       5.00528958459829       2.19782217391428
F         2.08751233786145       2.95921444106045       1.66139055439250
