29
C9H16N2O2 optimized with DFTB in AMS.
N         1.32979988867878       0.33585557608843      -0.42168722637692
N        -0.78441850555263       0.05092129896177      -0.41347717966443
C         0.37838500548257      -0.57332816823913      -0.64574666791805
C         2.76151535411241       0.06567616632752      -0.47788026935176
C        -2.08436084021036      -0.60257263404352      -0.51884859995469
C         0.77595647244541       1.53168691370759      -0.03977311152939
C        -0.56927971024145       1.35149224501377      -0.03591882811434
C         3.27341755121245      -0.29506652199685       0.91232324624042
C        -2.18975762253869      -1.73669691998879       0.49595160147856
H         0.44316378537585      -1.77842319094342      -0.90191297679054
H         2.91180439800502      -0.77668367684633      -1.15641517247646
H         3.26428574899741       0.95514220075573      -0.86814459082462
H        -2.85633191029077       0.15200015928623      -0.34531004334941
H        -2.19002989612459      -0.99135796208311      -1.53634742060321
H         1.37244789203006       2.39865772766710       0.18535421558047
H        -1.37402951953135       2.02820130588210       0.19350713306567
H         3.04748098098502       0.49652253187670       1.62690613781815
H         4.35146809602328      -0.44185812945464       0.86832535961859
H         2.80715157774230      -1.22317032426529       1.23916072598750
H        -1.45961856562813      -2.51303695474108       0.26946587954988
H        -3.18890031669522      -2.16767922706298       0.44995754802045
H        -2.00932329158572      -1.36231793469499       1.50315821435448
C         1.66434823537565      -5.09710769089794      -0.91619786570461
C         1.51720624959745      -3.57510567703848      -0.80074303201815
O         0.35854130045991      -3.12358142501723      -1.08683010597976
O         2.48300587289007      -2.89508861339490      -0.45895347373765
H         0.86277599534578      -5.58433809187893      -0.36360120182825
H         1.58029270874653      -5.37778426951066      -1.96536772904366
H         2.63100644259296      -5.41221517046869      -0.53009547454825
