38
C10H19F6N2P optimized with DFTB in AMS.
N         0.21773735767207      -1.55253491410332      -0.12400733610910
N        -1.82792041039592      -0.87954810912200      -0.07131151222511
C         1.64853353362124      -1.66129062992270       0.14196391771497
C         2.42654893930370      -0.57677153016865      -0.61379361165657
C        -3.03280627712042      -0.13049196286332       0.27089476708086
C        -0.64416623548316      -0.77622524711681       0.53361756406454
C         2.32277006940362       0.79237019373686       0.06316076395124
C        -0.41820264998124      -2.12883742273327      -1.18727800991868
C        -1.70796922034736      -1.70445855920685      -1.15411079977258
C        -3.07817652617344       1.21044063684412      -0.47395891962708
C         3.08874421461034       1.85071234696764      -0.72706984425868
C        -2.12433956204750       2.24126014523966       0.11985235565321
H         1.80213386619991      -1.57937323768781       1.22221073651540
H         1.96332585661810      -2.65480987124247      -0.18713504033561
H         2.04984863749156      -0.51413718399850      -1.63724911337157
H         3.47382055297654      -0.88984431273843      -0.65312263645210
H        -3.04385026064367       0.01991991231732       1.35447055065780
H        -3.88848689486075      -0.74924082758131      -0.01111052818733
H        -0.43349052838859      -0.20451711715231       1.41974492875325
H         1.27065092638136       1.08468978801345       0.12605409734931
H         2.71746754870599       0.72619602340369       1.08424426431167
H         0.09680439385261      -2.76384096601535      -1.88553015640201
H        -2.52976186028331      -1.89957429899677      -1.81929489430252
H        -2.83770877128528       1.04512142929224      -1.52640893414753
H        -4.10530964322975       1.58121641918901      -0.41157253860563
H         2.67575907524628       1.94040386170343      -1.73106684080910
H         4.14386704397057       1.58428992917046      -0.80364280485926
H         3.00714760278328       2.81618364268206      -0.22775462281209
H        -1.09774468808523       1.87970247082327       0.08343749400228
H        -2.38576380646806       2.46064690544520       1.15660105510019
H        -2.18024467394053       3.16086516038225      -0.46100862354593
P        -0.26697594764646       0.74898694433961      -3.35420399184290
F        -0.16809600358494       0.81288803884313      -1.67418804789066
F         0.46973941106222      -0.74920682212781      -3.28629590543449
F        -1.74659942006575      -0.00899528334577      -3.18705444421690
F        -0.37472216821871       0.64072398510809      -4.96989003278460
F        -1.01434534344182       2.20267138962284      -3.34451501287581
F         1.20559353769247       1.46137887419915      -3.44797808301085
