52
C14H18F18NP optimized with ADF in AMS.
N         1.46032446273705      -0.23655086285411       0.01894531928124
C         1.64778593886588      -0.91936763759999       1.37766047993159
C         1.73470881687975       1.26003643650246       0.27811000108746
C         2.51259441394656       0.03199715074360       2.18302741893346
C         1.95520662360820       1.39756607480181       1.78026578432464
C         0.04632176759082      -0.41652447282062      -0.48562161521643
C         2.48677657703410      -0.79471206147443      -0.96237542522507
C        -0.33918261840576      -1.85753955254448      -0.75277694681566
C         2.39630066898791      -0.20803035039165      -2.35325627554166
H         2.08074627895831      -1.91490956486218       1.22038848798394
H         0.64661535066823      -1.01504307075339       1.82466964309375
H         0.89251246976264       1.84505363738368      -0.11257671068146
H         2.64469964851059       1.51944913339864      -0.27104131992688
H         3.56883540455408      -0.06510309884241       1.89966039371867
H         2.42936162482924      -0.16956833035948       3.26067777595966
H         1.00498125501926       1.59922951341277       2.30318968015253
H         2.65285846246736       2.22058452684641       1.99055942463022
H        -0.60222347374425       0.03439343659838       0.28144169262208
H        -0.03968921103926       0.18903023705245      -1.39843529141397
H         3.47001494055807      -0.59372954777045      -0.51848788536287
H         2.33995206818039      -1.88353776043864      -0.97721603140314
H        -1.39983040001567      -1.88248465684387      -1.04390504949747
H         0.23938507221281      -2.29405047124315      -1.57799055821478
H        -0.22435348414992      -2.49455286300965       0.13580818232200
H         3.26487379456055      -0.57436490134578      -2.91921476034053
H         1.48363097706761      -0.51058721984317      -2.88693829979565
H         2.47014258636296       0.88871187760737      -2.35230745296076
P         6.91023032539198       0.15381726958439      -0.96423470536489
F         7.55342777038230      -1.27299915746000      -1.50200243254906
F         8.34763511276701       0.71475172918606      -0.37245557424477
F         5.39342959009721      -0.33976341997621      -1.53190709564690
C         7.41777102897317       0.84050240249541      -2.73624831150369
C         6.62491600579368      -0.82813331708846       0.81282578979707
C         5.94423558424305       1.80904942259702      -0.25308069277158
C         6.66536593890603       0.33091963010753      -4.00502352879506
C         6.88223627158441      -0.22662775595283       2.24292687502875
C         5.28545176791025       2.98136156564725      -1.05680650184432
F         8.73520283067409       0.52203560765146      -2.96248884210222
F         7.34015002340571       2.21789197005594      -2.79432364716621
F         7.47990592066291      -1.90338457621436       0.81118141851720
F         5.33502339068530      -1.36748964715782       0.88466682987219
F         6.70960160063705       2.43918382954125       0.69344862733025
F         4.83043528598952       1.27742051247028       0.42178744663440
F         7.27513814838471       0.83257111223654      -5.11596867042393
F         5.37110808588740       0.75092031765189      -4.03976943981982
F         6.67302230072642      -1.01620388802424      -4.10103218616785
F         6.84339308290221      -1.24855435956893       3.15164894521588
F         8.09141000882174       0.35766031166727       2.32833284585030
F         5.94108529771470       0.66765600848904       2.64724736824581
F         6.15779318160148       3.93507275871651      -1.41616827812990
F         4.34574511600598       3.59667833190030      -0.25647520245993
F         4.61889431204416       2.53296161959458      -2.14966902894663
