53
C15H17F18N2P optimized with DFTB in AMS.
N         0.46391939568095      -2.10513849558664       1.37479450302175
N        -1.59668528409037      -2.03341382382715       0.75941039190256
C         1.72153216300323      -1.79519772541074       2.04822948639588
C         2.66801364112261      -1.06022026044466       1.09878695522997
C         2.12142833821213       0.31274882425779       0.69428578743237
C        -0.68279001062177      -1.44692330932347       1.52973121331583
C         0.27720678133289      -3.14088496821044       0.50339257227817
C        -1.02368136950552      -3.09769369711751       0.11598754547129
C        -3.02171333423071      -1.70695169625901       0.67354018698949
C         3.08818742931995       1.04269195546942      -0.23592955983216
C        -3.31627859636214      -0.29675136153789       1.15771125734966
H         1.49286797165331      -1.18576433135761       2.92446940448569
H         2.15755026336674      -2.74106407613849       2.37763748649792
H         2.83758527788754      -1.67203662730663       0.20727934664596
H         3.62578596826133      -0.93864861154787       1.61215824733028
H         1.15628181138199       0.18685581475138       0.19091304174140
H         1.95326370286387       0.91451492830601       1.59346709644058
H        -0.83910138123899      -0.61482282050816       2.19297684760823
H         1.06830403678920      -3.82344742145585       0.24769031871737
H        -3.31810899526636      -1.82948543532651      -0.37255463134405
H        -3.56182375620206      -2.44141972657092       1.27993373965057
H        -1.58512721540080      -3.73251057985620      -0.54664180662141
H         3.25320033944671       0.46426159751253      -1.14579571982122
H         4.04838316218498       1.19723118308836       0.25711422641332
H         2.67745823634951       2.01413444922252      -0.51029226084223
H        -3.11952992054439      -0.20438523286382       2.22428348161564
H        -4.37031317543665      -0.08520760793662       0.98273903229195
H        -2.71542907975185       0.43344403015004       0.61596408203865
P        -0.94938919450812      -3.07227750228434       5.21964875144234
F         0.36083542575634      -2.71089604819635       6.19006608847840
F        -0.28429629941488      -2.06129206895188       3.99543433813324
F        -1.63669613248483      -4.06405526969309       6.36716060324537
C         0.08640798024422      -4.58679971529319       4.52323142963179
C        -1.81264548937631      -1.51318531560442       6.03488734516855
C        -2.44736913483847      -3.41242486223833       3.91603947221695
C         1.29990825445858      -5.08844221554923       5.34923209445435
C        -1.39952470107336      -0.10766437054910       5.51600153248425
C        -3.70773436087847      -4.25765772667335       4.23297802038210
F         0.59264913839632      -4.31985218606144       3.29163867549521
F        -0.74652458263127      -5.63147767535640       4.38063116268189
F        -1.54102582503286      -1.52062501959036       7.34806286150069
F        -3.15130413982949      -1.58804931727871       5.91517165040736
F        -1.92869402566356      -3.96214375117263       2.78912929056958
F        -2.91281492032236      -2.19475380906809       3.52432562514526
F         1.72998101895419      -6.25472384872896       4.85577263443360
F         1.00290889445189      -5.27111719192469       6.62674224486563
F         2.31122578999771      -4.22356102370893       5.25886563165396
F        -0.08454631727052       0.07633823050685       5.58254237689369
F        -1.76776846991921       0.07558916865495       4.23571778747426
F        -1.98502128203457       0.84986800508741       6.23104441893703
F        -4.54619057173021      -4.18800544876974       3.18399410226244
F        -4.35822890102586      -3.81602443893684       5.29914109489030
F        -3.40384587163015      -5.53454932699108       4.42075916814823
