17
C5H9ClN2 optimized with ADF in AMS.
N         1.25754280609915       0.07112634006486       0.40299361515021
N        -0.89065419414229      -0.15043465305745       0.04042567475812
C         0.29318870394038      -0.81746920491480       0.04561368393777
C         0.70871869220246       1.34655221272623       0.35962723888442
C        -0.62263213852984       1.20912506590109       0.13444048828489
C         2.66967971225682      -0.24366088343119       0.27614072710225
C        -2.09266109769176      -0.73379330299649      -0.52853637154451
H         0.38257446305370      -1.88868936646322       0.16961730297355
H         1.31200667992023       2.23159982851143       0.51254894456561
H        -1.40647440128889       1.95066981405418       0.05545310137348
H         2.92304623471375      -1.09387662139075       0.92292843694527
H         2.85958337536474      -0.50150246295615      -0.77941831431649
H         3.25823815058378       0.62852960919103       0.58143484869716
H        -2.91349811935162      -0.01257405563777      -0.44579316066852
H        -1.87895958932280      -0.97447706389280      -1.58356639832856
H        -2.35964428154899      -1.64746392929790       0.01839655563498
Cl        0.73563549684117      -1.23318334531029      -2.32965448404963
