34
C10H18F3NO2 optimized with ADF in AMS.
N         0.53529126158700      -0.37167830506634       0.48918588968328
C         1.40745088607105      -1.60170338788866       0.23995259327232
C         0.88061541597649      -0.00763127474151       1.91863942039236
C         2.69720466268919      -1.36255247682254       1.03220838708892
C         2.38510115548217      -0.21619519041604       2.02450892550835
C        -0.93221153500118      -0.69154129579980       0.37375771376762
C         0.95227376130750       0.74157415897424      -0.46404561098651
C        -1.36015937064764      -1.12757997569447      -1.01237617243756
C         0.11655132921490       1.99924063379295      -0.38582847324550
H         1.60945069611564      -1.68602021704351      -0.83613990008195
H         0.82966714463791      -2.46034627790290       0.61406187406450
H         0.33170922478258      -0.72009813553012       2.55396559254161
H         0.52755991659977       1.00909530705379       2.13205257261364
H         3.48039798527729      -1.06386288300619       0.31935968356683
H         3.00277607426955      -2.28501278017549       1.54656199453953
H         2.65985069685958      -0.45955502854795       3.06104229129462
H         2.93301021819483       0.69450138866436       1.74258568370025
H        -1.12412576801670      -1.48598231171142       1.11185824205700
H        -1.47699739109969       0.20751298648102       0.69858018630410
H         2.00922992376284       0.93429882809475      -0.25233410529554
H         0.95459665428019       0.30132592648531      -1.46962690726106
H        -2.43264350467776      -1.37231981065753      -0.97854414931211
H        -1.22000776032065      -0.33719115180383      -1.76151880430039
H        -0.81812219158835      -2.02399333531045      -1.34416050809934
H         0.58474289260658       2.71969384456420      -1.07430654917350
H        -0.92348513229254       1.85379267348853      -0.71372765515340
H         0.11334470601331       2.46125164651501       0.61270167224109
C         3.94378430473556       0.26476213319260      -2.45471197579179
O         3.19083937419767      -0.51633186151579      -1.80221560596398
O         4.40401745817963       0.21998674083197      -3.60165480668498
C         4.31008308295919       1.57496546309399      -1.65325902938358
F         4.42841326817459       1.37647546277550      -0.28099193747760
F         3.29795439111439       2.52039344672566      -1.78855718480858
F         5.45770428805510       2.17542172300065      -2.04656515887866
