31
C7H9F6N3O4S2 optimized with ADF in AMS.
N         2.19408123448904       0.23594842171896       0.30584168186410
N         0.63954840092630      -0.17700660075219      -1.14976895865001
C         1.64605356406905      -0.72053956229693      -0.45313858853209
C         1.54613889367958       1.42813466350794       0.06002932935728
C         0.56653234359858       1.16757206073492      -0.85220767859462
C         3.35666370282225       0.06540545804275       1.17487619671893
C        -0.23205179453260      -0.87684770334342      -2.09187929066920
H         2.00501620481883      -1.73655403973245      -0.55546908315157
H         1.83994262081494       2.35029276534698       0.54513639354047
H        -0.16701370771636       1.81469545726788      -1.31633233812998
H         3.47984133048997      -1.00041538101288       1.39318342293442
H         4.24710450823115       0.42603144699007       0.64642508328885
H         3.18096157722866       0.61733287455063       2.10641152050182
H        -1.27612027711971      -0.69426785488879      -1.80712739189996
H        -0.02995994208781      -0.51160317927056      -3.10581943417280
H        -0.00197736143064      -1.94504917793407      -2.06023074904373
N         4.74526506734533      -1.99382506922147      -3.46090394112454
S         5.28091857971500      -1.28372013169039      -2.13158349788458
S         3.20070079681889      -1.96698775210082      -3.90040402219420
C         5.29466560792896      -2.63532815939682      -0.80709390168077
C         2.86751813432150      -0.18336590931177      -4.50974612842236
O         6.69312322699849      -0.98239775431638      -2.28244638586159
O         4.37825909418673      -0.27606678302228      -1.55807369703809
O         2.22886671849755      -2.15439913824305      -2.81353885467061
O         3.06391809469716      -2.76321978443973      -5.10652451836134
F         5.82552626147554      -2.11725499082957       0.33682901282502
F         6.02593650193908      -3.70105694481069      -1.17495835631691
F         4.03173178770686      -3.06822620251519      -0.49984368415989
F         1.87814862619175      -0.22199113973538      -5.44059809916351
F         3.96611076800555       0.35931249344190      -5.06678145880936
F         2.44218788349038       0.63528695076279      -3.50778049859918
