46
C14H30ClN optimized with DFTB in AMS.
N        -0.09643618073387       1.49817149919193       0.14947715681712
C         0.48490858478595       2.45048583193978       1.16535966252622
C        -0.81453949132728       2.39057680970547      -0.82407829841667
C         0.99703939032838       0.76799158313229      -0.57149392451153
C        -1.06151090854262       0.57043804596218       0.82776774735651
C         0.58556684538873       3.81963571390852       0.48971503898883
C         0.06124266504149       3.62629938791352      -0.93479444117394
C         1.72076804875367      -0.28661662979392       0.26482576063890
C        -1.76271095951984      -0.39421554352328      -0.12227239918330
C         2.94662845272192      -0.79547152637139      -0.50301367617296
C        -2.78662938105794      -1.21835963200751       0.66772731730682
C         3.68071117222351      -1.88054083812632       0.29123655560993
C        -3.52803604345278      -2.19893724636003      -0.24553378104892
C         4.90383718600023      -2.39113847834436      -0.46775561200189
C        -4.55193181777455      -3.01822855142939       0.53793825909864
H         1.44716149163481       2.06963585525331       1.50666519576998
H        -0.21103738714283       2.49914479158230       2.00424372648638
H        -1.77157565851277       2.65574529708909      -0.36417539775544
H        -0.96629304697458       1.86774630405345      -1.76787673899721
H         1.71027478739666       1.52359252647585      -0.91005663752836
H         0.55392230303617       0.29654650157218      -1.45217735085076
H        -1.80083969992679       1.21772900679452       1.31463529486226
H        -0.50964996693078       0.02713000275862       1.59776297328204
H         1.60955140818957       4.19673661772137       0.49378612765938
H        -0.05457938732631       4.52276139655809       1.02692625035769
H        -0.52870028700731       4.48147145690779      -1.26635691102149
H         0.87990116912970       3.47406352297916      -1.64402569460490
H         1.05542744511280      -1.12853480592408       0.47188517113290
H         2.04324284958244       0.13203327802399       1.22169581219159
H        -1.04573241970473      -1.06870886518641      -0.60094240886774
H        -2.28051645761273       0.16276442858307      -0.90768742086597
H         3.62724626898884       0.04011027734828      -0.69835485481005
H         2.62782022471032      -1.20043446855670      -1.46944789059748
H        -3.50533250690631      -0.54224491960196       1.14069780042861
H        -2.27332346848036      -1.77157651073904       1.46157177826702
H         2.99685360972531      -2.71358918952135       0.48497992647003
H         3.99434404308997      -1.47288905978185       1.25796879675557
H        -2.80623396085246      -2.87300279681301      -0.72014588509707
H        -4.03730757161074      -1.64186046828630      -1.03900200993245
H         5.40878926080609      -3.16083536940219       0.11571522370623
H         4.60790308338888      -2.81922747427927      -1.42636648896764
H         5.60645269801865      -1.57753876167631      -0.65249234942852
H        -5.06857128824085      -3.70740211286430      -0.13025178719983
H        -4.06034082000267      -3.59613232461711       1.32177625743187
H        -5.29047118573664      -2.36297183029138       1.00104454133680
Cl       -2.48584888717636       3.32853200344264       1.73242312915280
