54
C16H29F3N2O3S optimized with DFTB in AMS.
N         1.72277067484173       0.28887571287388       0.83472075367895
N         1.85158409902200      -1.83461592666523       0.50670469894135
C         0.29312266630407       2.29535202261818       0.82526718197434
C         1.46243874615516       1.56797949842351       1.49388517146406
C         0.32400799348532      -3.79991138127708       0.52233876104336
C         1.74546235811748      -3.27188273935790       0.74942589791342
C        -1.01767439799192       1.52718582452142       1.00807247003580
C        -0.21595469492236      -3.58740137249328      -0.89886340622238
C        -2.18569628225185       2.20261494620729       0.28848412828551
C        -1.05357269094489      -2.30929499233457      -1.02413618900916
C         1.63391161220999      -0.89844563418947       1.42612661520180
C         2.01154427506564       0.10954442034647      -0.49191004214919
C         2.09327796573666      -1.23189016438423      -0.69836684351926
C        -3.48562976673970       1.43717260731848       0.55859556461577
C        -1.54992550648605      -2.11171731458465      -2.45926249548603
C        -4.65776867897096       2.02834937934337      -0.22106435134327
C        -2.35522259472451      -0.82080211958051      -2.59599452817802
H         0.21482881072080       3.28398399692126       1.28751900105879
H         0.50843345123272       2.43897495284297      -0.23859762946992
H        -0.34450161691051      -3.33825501533093       1.25066805090581
H         0.36560354223350      -4.87085433424524       0.74032566328172
H         2.37521020433579       2.16925823643841       1.44146989675415
H         1.22663055915505       1.34688958651238       2.53823608978047
H         2.02601624924319      -3.44358458526963       1.79180524499594
H         2.46074646523276      -3.77306225039882       0.09115486577131
H        -1.23899516837635       1.44955142974232       2.07566807134125
H        -0.89822647377346       0.51112829158176       0.62222090809105
H        -0.84697288893966      -4.44291562330451      -1.16043531027925
H         0.61257018120879      -3.56590055241720      -1.61711686495624
H        -2.28859958446772       3.23724151553340       0.63442414064198
H        -1.98822605244882       2.22843535733578      -0.78969254041417
H        -0.45968822881628      -1.44159444026455      -0.72423407211029
H        -1.90639323709410      -2.37009975152024      -0.34231500289720
H         1.43766393357429      -1.07437494916727       2.46951781005492
H         2.13777161254488       0.93338582751496      -1.17189793851542
H         2.30661412612277      -1.79431554275042      -1.58999459602628
H        -3.35203613687762       0.38737324030547       0.27802367948840
H        -3.70575709771202       1.46757903806473       1.63030137242338
H        -2.17420703312104      -2.96313522248865      -2.75059029523913
H        -0.69237506981379      -2.07827765843904      -3.14182719073775
H        -4.81982569792302       3.07019738804765       0.06027832163120
H        -4.46525618546383       1.98547448092519      -1.29455866667527
H        -5.56796690003178       1.46647129249725      -0.01009523188886
H        -2.71007258892357      -0.70460700802091      -3.62049101418538
H        -1.73748887078342       0.04241636926854      -2.34269711798997
H        -3.21757561922884      -0.83793221490760      -1.92898891699778
S        -0.81860358079569      -1.40497406823764       3.25130522382331
O         0.09094669450010      -2.52305902206225       3.46366314527633
O        -1.46244574452677      -1.41618298427446       1.94633168042194
O        -0.25411197429722      -0.11217468080001       3.62166782666041
C        -2.19584784506239      -1.67119061337084       4.45300172317245
F        -1.74209971519323      -1.66743222315441       5.69886971789462
F        -2.78971438728119      -2.83608443906970       4.22428606726358
F        -3.10161668914809      -0.70784785842353       4.33178515910286
