32
C8H18BF4N optimized with ADF in AMS.
N         0.35126336477076       0.32533369021009       0.25395509893677
C        -0.63580181822752       1.43976395282330      -0.09113556585711
C        -0.12465974554360      -0.95957140579665      -0.38303989943827
C        -2.05998241589383       1.10968292064431       0.30736673788328
C        -1.53240328134780      -1.33251443826540       0.05658504286910
C         1.69250976918949       0.74867928746238      -0.32687558507398
C        -2.52768231969524      -0.22136099983242      -0.27760246470662
C         0.48689405533882       0.16318706196197       1.74279777616418
C         2.84799740474494      -0.18101980188339      -0.01646241016817
H        -0.55014936086543       1.56107169065696      -1.18371799914312
H        -0.26642107983624       2.34176682370918       0.41671138704700
H         0.60089994867074      -1.74287050632737      -0.12594448544526
H        -0.09217595997699      -0.79040756890150      -1.47213539039727
H        -2.68728186225077       1.94163412795576      -0.05152384274613
H        -2.15029474204946       1.13035891746184       1.40458518091113
H        -1.54342680791336      -1.55041422913767       1.13766942639260
H        -1.80176053283299      -2.27205327111185      -0.45343885935952
H         1.53066754401459       0.83375181967312      -1.41245085122098
H         1.86924122255244       1.75263324708864       0.09023107628421
H        -3.52946219264301      -0.48055870700152       0.10012070182467
H        -2.61092075615742      -0.13383204998838      -1.37709233265816
H        -0.50086728597397       0.20059889048969       2.20721341364643
H         0.96656156192123      -0.80208231965701       1.94398466564294
H         1.07851476325278       0.99299278833300       2.14998370641133
H         3.74341430813442       0.22992296930165      -0.50714802845217
H         3.06349227266848      -0.22394888626807       1.05954172465959
H         2.70307609934255      -1.19964827142508      -0.40342772160410
B         0.62093729698718       3.39389639796600       2.74820761334013
F         1.39535844076841       2.49271897031328       3.53906240117152
F        -0.71261719356730       2.87403871936035       2.63426601654228
F         1.19597715705088       3.39197406165050       1.40970889488182
F         0.61729558366724       4.68242647983430       3.27035569806190
