76
C22H34F18NP optimized with DFTB in AMS.
N        -0.11904747143150       3.23904798605759      -0.55099112195808
C        -0.52295879692190       3.74139268636935      -1.90406341903039
C         0.53806539386870       4.43635409573138       0.07010082782375
C        -1.32720060073866       2.86702639688935       0.26592986173347
C         0.84415479387985       2.09855173718553      -0.68897909902921
C        -0.97010111333562       5.18600654853333      -1.68699811680063
C        -0.30051754745221       5.62739298522395      -0.37750960899302
C        -2.05805393841115       1.61358127846944      -0.20763937454381
C         1.38468149311643       1.59396200858541       0.64598240925910
C        -3.41559415364503       1.52253264655476       0.50161045515619
C         2.37274055984665       0.44570155602470       0.41693436631409
C        -4.15966999571744       0.24509091713951       0.10367778700424
C         2.93798152574579      -0.04092366285529       1.75525511161609
C        -5.50687903620098       0.14758711544585       0.82670990832592
C         3.93696733009345      -1.18436546241515       1.55550871070203
C        -6.25562343817431      -1.12596623060264       0.43876747385709
C         4.50057904718491      -1.66467217444227       2.89164715636673
H         0.35885680284866       3.69804102360208      -2.54741099781128
H        -1.29966813769058       3.10212034753943      -2.32184100609990
H         0.56616582579435       4.31870906451702       1.15001464395138
H         1.55705058236711       4.49649338022832      -0.31802846147035
H        -0.98818331873428       2.73431816839810       1.29274894560649
H        -1.99732056941874       3.72775802328211       0.24352608094000
H         0.32908092504315       1.30078505455955      -1.22948210291803
H         1.66957912395433       2.45712814701914      -1.31056134463108
H        -0.65579440385756       5.80261893982253      -2.53080927635868
H        -2.05714812010171       5.24810603955086      -1.60836012816193
H        -1.04856534889522       5.87194825984468       0.37707671665220
H         0.33610563540305       6.50119325082866      -0.52030248777072
H        -2.21956093452983       1.63488019375519      -1.28967432621874
H        -1.46981184447230       0.72231035537950       0.02790952659421
H         1.89518356934373       2.40562940728182       1.16710229690867
H         0.56991724417410       1.24386403141051       1.28283538934297
H        -3.25966506350688       1.53209200543306       1.58328323541479
H        -4.01962395465290       2.39796639190809       0.24146082934432
H         3.19014397090507       0.78835452157015      -0.22685636598967
H         1.86556138451482      -0.37973121152725      -0.09452534704097
H        -4.32181660569345       0.23749072379823      -0.98010793251529
H        -3.54549570830864      -0.62633141093241       0.35555118923698
H         3.43223370280060       0.79355955919084       2.26317921636079
H         2.11528240411851      -0.37933688055693       2.39353107484593
H        -6.11789740148501       1.02105250787447       0.57570732980600
H        -5.33858854746745       0.15651262989269       1.90840775162910
H         3.44005251525309      -2.01811151646141       1.04743831075162
H         4.75732569274386      -0.84342109864817       0.91458450920222
H        -6.45090949451726      -1.14394041812227      -0.63451397774298
H        -7.20843856385848      -1.17316471127188       0.96606012176532
H        -5.66994560405854      -2.00849743424028       0.69980695804482
H         3.69869286232265      -2.02693941824336       3.53608457183502
H         5.20923468965187      -2.47667559790437       2.72789139697961
H         5.01566682186519      -0.85068689291385       3.40304595153568
P        -0.68031557788670       5.16660360396813       4.11488877249321
F        -2.03884519707288       6.10449412423355       4.26970792594888
F        -1.19884738531728       4.57893506388951       2.57788430469735
F        -0.09186626522865       5.72705365880285       5.56849857168798
C         0.04183998365493       6.70870426464288       3.13510786858060
C        -1.74472300812307       3.71543624638667       4.98795679972503
C         0.95993387988968       3.97190025843790       4.00614637778488
C         0.48808923849377       7.97268666476092       3.91372818334127
C        -1.69486677457016       2.21311870997655       4.56473399332006
C         2.43581986807965       4.33041789814544       3.66818360481533
F        -0.89255002372481       7.13033018492776       2.25799939467755
F         1.09753586289368       6.31510391464340       2.37920621438540
F        -3.04248219419128       4.02819818039478       4.80645248177868
F        -1.51435876233944       3.73126033798475       6.30925943910834
F         0.66951033713460       2.96252433800698       3.13151547844916
F         1.01142208893658       3.41449478943962       5.23037472528187
F         0.86215470310432       8.92412364154570       3.05109497444638
F         1.52095862133591       7.71994120961253       4.70936267560288
F        -0.50599989060389       8.45437034530748       4.64798819184380
F        -2.75175895307237       1.58347480648332       5.08113073532709
F        -1.78014980223753       2.07313354667802       3.22957879331626
F        -0.61331832810371       1.56439383495399       4.96902969705968
F         2.62024309112961       4.34434621103411       2.33583053009689
F         3.25470103433441       3.39747376646632       4.15420722161363
F         2.81404186192235       5.50138607521726       4.15462052729567
