76
C22H34F18NP optimized with DFTB in AMS.
N         0.69626977557891       1.16312461567820      -1.35260846121521
C         0.29631190117858       1.68510072255408      -2.70015071402154
C         0.95309589581079       2.41661545173950      -0.57365041753620
C        -0.43071458094526       0.40252474342658      -0.70608254436190
C         1.93950262667791       0.33169201817668      -1.48075105829254
C        -0.56400934691760       2.90984490594659      -2.41905912372127
C        -0.10493120314714       3.41549718692323      -1.04186159925915
C        -0.81696423314864      -0.89739854816111      -1.40842706928516
C         2.51897181555596      -0.13490638820706      -0.14922780353243
C        -1.97721405457516      -1.56357946260521      -0.66152288101513
C         3.79973528999422      -0.93676531838137      -0.41301784877363
C        -2.38175590515339      -2.86339382929709      -1.36459297254987
C         4.44390526408183      -1.39632787669053       0.89732254931427
C        -3.54110001990291      -3.55182970978179      -0.63858571857598
C         5.72182137301208      -2.19615349915168       0.62536604096080
C        -3.93687466353606      -4.85090387032114      -1.33826458803175
C         6.36824296157033      -2.67347851323122       1.92433204759895
H         1.21185429059478       1.96448364901824      -3.22359883094783
H        -0.21348618666588       0.91031879184130      -3.26655747431706
H         0.90480611438517       2.20637476317159       0.49466723519552
H         1.95719585529651       2.76143912751510      -0.83016038563366
H        -0.12569031162179       0.19655956334123       0.32295933094841
H        -1.28995319343467       1.07663160134529      -0.67671038585498
H         1.68492806310062      -0.52310819998546      -2.10499565787468
H         2.67352114541837       0.93951871078215      -2.01528862900828
H        -0.41150032352078       3.66042526860371      -3.19570793636188
H        -1.62422932054689       2.64950504804674      -2.40330938469223
H        -0.94162777383182       3.45230681486769      -0.34137415758726
H         0.32882703405339       4.41474535318834      -1.10445976161608
H        -1.12490680878439      -0.69818508017724      -2.43608901934718
H         0.02992832187285      -1.58551653397630      -1.43753098526955
H         2.74969601160480       0.72432688506014       0.48812555006489
H         1.80260047279115      -0.76848003152444       0.38098795851984
H        -1.67669229251458      -1.77773070576246       0.37014982560673
H        -2.83265517702351      -0.87991579433451      -0.62699892696008
H         4.50702539107944      -0.31816650712513      -0.97453888776290
H         3.55775924066705      -1.80801982515540      -1.02735459981993
H        -2.67520508377367      -2.64007557761535      -2.39526079683888
H        -1.51982868673264      -3.53731288937007      -1.40217519076313
H         4.68059592083558      -0.52318012574624       1.51589723595358
H         3.73392740007490      -2.01762099202915       1.45432152993144
H        -4.40340094235623      -2.87682550973179      -0.60688184650823
H        -3.24774666601910      -3.76794531492580       0.39465790383096
H         5.48122345395862      -3.06119920438840      -0.00077309129947
H         6.43066480958835      -1.57016777570178       0.07345472273691
H        -4.24755067444754      -4.65193648004042      -2.36455518050781
H        -4.76481522888654      -5.32314739639155      -0.80916676193165
H        -3.09565597064319      -5.54474469256775      -1.35890625961049
H         5.68665448899657      -3.32378666135585       2.47455322895853
H         7.27842589504470      -3.23132864710446       1.70409617517250
H         6.62599931718070      -1.82442845501305       2.55932935658271
P         1.43737253463634      -1.76810712081635      -5.25083099347851
F         0.89449904700204      -3.28310763069676      -4.83958983815528
F         0.60675732938233      -1.06215611832594      -3.91230515135004
F         2.30736211473324      -2.39020130350639      -6.52431799043123
C         2.87189989340647      -2.17188027551715      -3.96480404582301
C        -0.23735663539860      -1.59618460604632      -6.32777786583642
C         2.05459175275946       0.08217142224271      -5.81220423504459
C         3.98470674355054      -3.18121578063740      -4.34556023396214
C        -1.13077615851866      -0.31452451368527      -6.32457173437219
C         3.42770419031105       0.77236508122255      -5.57775446825543
F         2.29853217529210      -2.65863797244086      -2.84074442923173
F         3.50140338129443      -1.03557529391565      -3.57688826482303
F        -1.08173009617470      -2.55720104049227      -5.90749669290312
F         0.03605625285806      -1.84775620146901      -7.61675677054037
F         1.16413548286651       0.97860055184904      -5.29965211325980
F         1.87166942384191       0.08564327914265      -7.14568120093238
F         4.78100999408275      -3.38781384220062      -3.28869195281779
F         4.73893787445162      -2.71915262118464      -5.33567022327277
F         3.47558854508147      -4.35079191081580      -4.70674430717633
F        -2.33348155440163      -0.62424223285885      -6.81264494497001
F        -1.33022293495810       0.16060426326690      -5.08379448934287
F        -0.64359143104664       0.66871159310692      -7.06706053442758
F         3.46447071951356       1.31103760407327      -4.34618212648189
F         3.59200400402827       1.77362285494378      -6.44042900558626
F         4.45737355223130      -0.05163402641419      -5.70930637771627
