42
C10H22F2N2O4S2 optimized with DFTB in AMS.
N        -0.59612973285028       0.58077070164024       0.40625517909441
C        -1.62907056985092       0.51186800712906      -0.68106032394029
C        -1.42302336579746       0.79151066485172       1.64279950927902
C        -2.80885666923392      -0.24226052582010      -0.07668959659250
C        -2.68272507925303      -0.04579369997360       1.44149990245006
C         0.32783918680652       1.73619439853384       0.15479046387887
C         0.13415562433158      -0.72419490751736       0.53042096577789
C         1.33636819946946       1.97652647021678       1.27532038478980
C         1.09888823892266      -1.03686895436708      -0.61314345458146
C         2.26711787020348       3.12367819252519       0.88288470872884
C         1.61952950508051      -2.46603331238775      -0.46101230027135
H        -1.90966182421831       1.53775654703084      -0.92706069317294
H        -1.20805877917536       0.03267851513481      -1.56398023664181
H        -0.84770954164806       0.50563244516963       2.52297567530407
H        -1.67105258738429       1.85151990517398       1.69986951559855
H        -3.74163825473022       0.17751882159358      -0.45579292871608
H        -2.77495945519624      -1.30193438391393      -0.33942991145664
H        -2.60397427686001      -1.00675165259320       1.95451758268702
H        -3.54248760981739       0.49208143920407       1.84383189888793
H         0.83402299115208       1.54664332137659      -0.79441698033139
H        -0.30490807475017       2.61761176630149       0.03326074578225
H         0.68075105966057      -0.70345334206029       1.47615894616111
H        -0.62652975079270      -1.50558523355146       0.59574987081840
H         0.80664286898493       2.24075541776389       2.19368317784880
H         1.92836470516577       1.07635276552164       1.46496445176980
H         1.94519672755976      -0.34603738455658      -0.59543915829313
H         0.59843786924684      -0.93740569336741      -1.57961189755807
H         2.81708487437387       2.87721976536284      -0.02622033540283
H         1.69446384798126       4.03411473108539       0.71150291588763
H         2.98042959366147       3.30445718983698       1.68604680267565
H         2.13614847970701      -2.58564561298683       0.49167845083276
H         0.79768779191678      -3.18126235251661      -0.50548689024220
H         2.31846954337415      -2.68802436119037      -1.26641203496099
N        -2.23380931095076       3.88187823170131      -0.21008732715687
S        -3.66885803701398       3.35792553187666       0.24130548612881
S        -1.48304680623628       4.86618437956337       0.78813525284842
F        -4.62886072938031       4.63759084223882       0.17250853527910
F        -1.02779574566906       3.84832614747202       2.01294301601350
O        -4.13355345772574       2.48644489664406      -0.79601421389079
O        -3.76713751439593       2.89208207679565       1.59371696193524
O        -2.25311080309178       5.86675789400858       1.43821259420325
O        -0.23393036287644       5.20436310914945       0.18475208594821
