37
C11H24ClN optimized with ForceField in AMS.
N        -0.55361082168406       0.08718121647338      -0.11393692262726
C        -1.55151219010703       0.48841272706006      -1.15841398407314
C        -0.89626203481272      -1.28911112544949       0.37353367968014
C         0.78455586965184       0.03698728786761      -0.79861222756174
C        -0.54307973737400       1.04402832883708       1.04669127074443
C        -3.01297646703992       0.42131325584522      -0.68694648801340
C        -2.35246440394359      -1.44140752719918       0.85992248378283
C        -3.34880779326920      -0.98475666622846      -0.20188138268693
C         1.99700976700239      -0.29908799015047       0.10533254372605
C        -0.13832643505719       2.49196795900335       0.71360901468744
C         3.28703457316190      -0.36019322224885      -0.72412296646170
C         4.49257495715658      -0.71132984544567       0.14356165491376
H        -1.46726240522336      -0.18421643894231      -2.04410208234291
H        -1.34657004734714       1.50664262180370      -1.54923782314313
H        -0.24212073427047      -1.58483136950070       1.22177517310614
H        -0.73447485388063      -2.03913714280238      -0.43481120175770
H         0.99235208037288       1.00186407018119      -1.31229211515159
H         0.75986295801042      -0.72157974216190      -1.61517676814009
H        -1.53609413043642       1.09874767306850       1.53224818310321
H         0.13158785818046       0.67469663237855       1.84826264443846
H        -3.67967451298487       0.67404210496385      -1.53958803185087
H        -3.21570910855703       1.16769226128012       0.10833188866255
H        -2.51603197597659      -0.87989078645384       1.80322794335991
H        -2.54461411930037      -2.51201797250374       1.08920231430613
H        -4.37611508654472      -0.99641393148157       0.22173848407317
H        -3.32366462666240      -1.68996591141536      -1.06187746964279
H         1.85584203633460      -1.28271367920925       0.59722840215402
H         2.13026117562636       0.47763586260547       0.88577621916007
H        -0.16398889795164       3.09499547752291       1.64537257883793
H         0.89335054084584       2.55370337728392       0.31543544680459
H        -0.84885448093836       2.96512403559126       0.00807336051621
H         3.46856073758223       0.62452044293524      -1.20723613782545
H         3.18587430127427      -1.12902782895651      -1.52069243085122
H         4.35219539621057      -1.70712249641754       0.61527825025963
H         4.63559459039013       0.05397058535371       0.93574179984102
H         5.40622476633418      -0.74420631300719      -0.48679997567117
Cl       -0.03862718457291       2.26348964581931       4.55404349514340
