34
C10H21NO2 optimized with DFTB in AMS.
N        -0.20293887823024       0.06907333650806      -0.20899785931971
C         1.03575893075135      -0.57441839498726      -0.74597384176883
C         0.33370853141178       0.99405190411195       0.84771828919884
C         1.91635985070684      -0.82014755447048       0.47777241504068
C         1.46296550646099       0.21932223418879       1.51454114797468
C        -1.11299870754071      -0.93706619273466       0.43915822233031
C        -0.90216635874217       0.84055407240236      -1.28483317531922
C        -1.69167022978316      -1.97555321309386      -0.50624926541340
C        -2.19424934711776       1.49646442061193      -0.81630238311521
H         1.50662683714933       0.13678773990694      -1.42960132302634
H         0.78282295332777      -1.48079205284955      -1.29487753999237
H        -0.47864802458610       1.25021610949824       1.53358922096304
H         0.70523444230769       1.88950032473306       0.34307038828272
H         2.96826035310188      -0.69980571256850       0.21158407604762
H         1.77578639419615      -1.83474032365384       0.85601422062422
H         1.08940554130532      -0.26493471112838       2.41983434885810
H         2.27428438206235       0.89513403821206       1.78992144137543
H        -0.54515408520615      -1.41666045905864       1.23651920186016
H        -1.91228334811633      -0.36002451254771       0.91067625259736
H        -0.19816100751576       1.60285159148556      -1.63056689981075
H        -1.09353129119236       0.15216513968606      -2.11251607181475
H        -2.32614156460687      -2.63189573711599       0.08915123927162
H        -2.30772717122196      -1.52413468274205      -1.28288901330084
H        -0.92202888189496      -2.58687836569654      -0.97728054505527
H        -2.49737112492831       2.22475282299836      -1.56827863850153
H        -2.99180981446335       0.76531182682705      -0.70195290888342
H        -2.06087420109325       2.00288585741666       0.13779551196444
C        -2.69864181033167       0.64268849177469       4.57344431861039
C        -1.92479157746375       0.46966647885399       3.24799280207996
O        -2.32085130443780       1.15575583978244       2.27388901379983
O        -0.97781217200992      -0.34310867934728       3.24244554877839
H        -2.94965300470089       1.69165484808209       4.72096087611386
H        -3.62270346131040       0.06846013604964       4.50785681861546
H        -2.10545406288760       0.27415651046484       5.40794109663452
