39
C9H20F2N2O4S2 optimized with ADF in AMS.
C         2.53544989596843      -1.19944456734938       1.48248811396074
C         2.09806699750822      -0.45755393613984       0.23025907893820
H         0.24369078276830      -2.51142525055735      -0.04304310758786
H        -0.74719764946690      -1.80613584265128       1.27908523058825
H         1.70736103271375      -3.22975777849087       1.54467759795625
H         1.08182919110414      -2.16062692751723       2.82488428622983
H         2.68876369625200      -0.51164639004422       2.32833595664018
H         3.48534881336383      -1.71507355020292       1.28515876559946
H         2.45152247047670       0.57984110957383       0.14752000144026
H         2.37319524021644      -1.01408504864725      -0.67462819657143
H        -0.98003749323318       0.54027294198168       1.32348312128605
C         0.10993754565070       0.60107456782859       1.23030140020612
H         0.57526751079577       0.42026986806788       2.20649495898559
H         0.40307680189141       1.58821724075883       0.84946424872609
C         0.04787503089480      -0.19395268753768      -1.12976342865077
H         0.63750917456875       0.65759326007915      -1.50529684387108
H         0.32623766462087      -1.07928104876000      -1.71808925930316
H        -1.69159613366956       1.06491660351287      -0.77502010827929
H        -4.53592789566782      -1.46045031745952      -1.02375416799566
C        -2.41723018688052      -0.98785486957011      -0.85905253683298
H        -2.09669893894812      -1.95367892356497      -1.28159602015970
H        -2.42719695163692      -1.11214980099726       0.23758610468498
C        -3.83476655356926      -0.67006560063875      -1.32947939909365
H        -3.87119990044264      -0.59605332467057      -2.42778240200055
N         0.57681336265735      -0.44577926070161       0.27740785429634
C         0.24617741909807      -1.83194988913711       0.81859332126353
C         1.39083128035694      -2.20126841435270       1.77049053499431
H        -4.19328597089277       0.28549221202541      -0.91281564166261
C        -1.43492667473808       0.10977616322264      -1.26788984336186
H        -1.56202600738263       0.29696380962922      -2.35045838187616
N         1.07594661052842      -3.82042540633635      -1.49273965667537
S        -0.19056056312296      -3.93153587236035      -2.48567742661334
S         2.56656115857021      -3.55343223952100      -2.01501984677545
F         0.08752689194419      -5.28596309925363      -3.35555322370896
F         2.46188925786500      -2.00189126790166      -2.67309422183190
O        -1.33655308293845      -4.23672186091118      -1.64807657358692
O        -0.28433327341826      -2.86230356375998      -3.46641847220903
O         3.02875219575066      -4.36323600833771      -3.11834358935564
O         3.38956941504312      -3.33510084240759      -0.83550124429283
