36
C8H18F2N2O4S2 optimized with DFTB in AMS.
N        -0.35403305016169      -0.27838462957007      -0.07150610616631
C         0.16158585950997      -1.33373801953551      -1.01038493636308
C         0.87961055661133       0.48349943401534       0.30461977129597
C         1.30154999239067      -0.67981998161917      -1.78706642224966
C         1.71591645923631       0.55144727716187      -0.96911772209370
C        -0.95943481814545      -0.89012451455296       1.15651571008245
C        -1.32173640886706       0.60714301530453      -0.80928903800385
C        -2.18872396624271      -1.74206233205526       0.88519319425124
C        -1.98916141426825       1.67663767248214       0.03853394511696
H        -0.64621316773363      -1.67726299337666      -1.65532108566606
H         0.52353157111390      -2.16653612174187      -0.40339361833529
H         1.39814383308777      -0.08590708474081       1.07984258529166
H         0.60662607827861       1.46009026515931       0.70291524432172
H         0.96803393684234      -0.38698966719076      -2.78286560434985
H         2.12825611575269      -1.38352372603294      -1.89687506642816
H         2.77837473898043       0.53729157776002      -0.72090183249284
H         1.50821041364245       1.47105746325055      -1.51969897315181
H        -0.17928261752605      -1.50296305197302       1.61696550502592
H        -1.19798901154604      -0.07167952284849       1.84022893663597
H        -0.76194361208735       1.07104277988489      -1.62158178726911
H        -2.07887651384889      -0.03974726236843      -1.25057442796936
H        -2.52383341002360      -2.15444697975408       1.83662092793509
H        -2.99946450840722      -1.15875250157230       0.45532309749501
H        -1.95903199215483      -2.56331421363354       0.21022009270067
H        -2.60205264269297       2.27746172960652      -0.63320918972758
H        -2.64305373528157       1.24793994781622       0.79620834488288
H        -1.26777405579539       2.33441831395455       0.52221056188122
N        -2.91438606308370      -1.50885201478383      -4.50629528763524
S        -1.41827191917264      -0.98814093971783      -4.54122166737615
S        -3.59087818645492      -1.59086293451362      -3.07705032243400
F        -0.55239761578877      -2.21018152932826      -3.86616142347897
F        -3.82927755274264      -0.02654236725815      -2.65184633530894
O        -0.97542256339651      -0.94759979223687      -5.89020786897907
O        -1.10010754161567       0.11852745179602      -3.67581896550607
O        -2.75904220191185      -2.07192596665650      -2.00072344914283
O        -4.90001270699707      -2.12470707833104      -3.21254053188885
