71
C21H29F18N2P optimized with ADF in AMS.
N         3.05903128729137      -1.90187156648536      -1.15000990280526
N         2.55935112982421      -2.85362266649032       0.73807778972255
C         1.86557933266300      -0.58957701290021      -2.87752671916301
C         3.19869951152796      -0.86564837557867      -2.18589411349356
C         0.87136454152231      -2.27981930934114       2.46462328298536
C         2.15528596150920      -3.03638947918409       2.14282042868433
C         0.79163055071931      -0.04123181331268      -1.94237592952059
C        -0.31320121132369      -2.69077985137604       1.59380712582303
C        -0.55459966617725       0.16329248842201      -2.63634528665976
C        -1.58052409870247      -1.91033920419977       1.93832469489586
C         2.77961909701012      -1.67033975521904       0.14262220998089
C         3.00169614160804      -3.25715836114465      -1.38686634823361
C         2.68955235428502      -3.85458321216966      -0.19897683338721
C        -1.65999095333552       0.57423063263554      -1.66499040527364
C        -2.78582902718533      -2.30648925221371       1.08812012971736
C        -3.02897517942428       0.65194373645305      -2.33510678935918
C        -4.04527426704877      -1.53228802452197       1.46383745184400
H         2.06825403656461       0.12785941460050      -3.69217066829168
H         1.51305328006967      -1.51853294524325      -3.35416597916028
H         1.04740595010972      -1.19100975082845       2.38030018274539
H         0.64696373562471      -2.46652527981616       3.52993552362347
H         3.95587807919996      -1.22609507012829      -2.89756309428128
H         3.59305599422070       0.03500220124944      -1.69022134179377
H         2.99276404726357      -2.71907624725182       2.78335739614410
H         2.01170990016795      -4.11838699150295       2.27435070616801
H         1.13251157419289       0.91379729313177      -1.49609354250541
H         0.63367380223555      -0.74850455232040      -1.10875153093575
H        -0.49782133617799      -3.77471897187451       1.70929470645592
H        -0.06974101745533      -2.54000678910962       0.52813679313753
H        -0.45402447936711       0.92484060064525      -3.43156937332353
H        -0.84478553466992      -0.77736950258511      -3.13472321206264
H        -1.38753992889989      -0.82691992703212       1.81404343658922
H        -1.82383681861523      -2.06045603953475       3.00775282184045
H         2.71850746080590      -0.69777658389225       0.61205235961218
H         3.13624599586699      -3.68875180286299      -2.37259672855064
H         2.50596903067587      -4.89726148912090       0.03072587244735
H        -1.69992027517507      -0.15985616759707      -0.84007864453941
H        -1.40705770430661       1.54858234980326      -1.20638459948230
H        -2.96582510850192      -3.39104172547097       1.19271624042715
H        -2.55449499760465      -2.14132758769142       0.02310965573882
H        -3.02167053818321       1.37404128924087      -3.16747324561887
H        -3.31517098313597      -0.32953583338916      -2.74473398165815
H        -3.80877300371462       0.96316404033360      -1.62315357063439
H        -4.89996964240590      -1.83876570787534       0.84215392536616
H        -3.89895925081789      -0.44854081615722       1.32739525530246
H        -4.31583315786907      -1.70423348165146       2.51848764080803
P         0.44288322404653      -6.17564010655465      -3.25127765539936
F         1.71649953176055      -7.24624522964712      -3.25574354311719
F        -0.26566271198932      -6.96190079484965      -4.52071274881945
F         1.11877389891952      -5.29174944049599      -1.97069434098450
C        -0.34356530087172      -7.42654494203336      -1.91811221898723
C         1.61049252253035      -5.05979856758352      -4.43545288029892
C        -1.13002006102794      -4.91608944175289      -3.33134893202919
C         0.38722157480757      -7.57256625592656      -0.53785340670386
C         1.64111327081946      -5.34453427886670      -5.96309440188802
C        -1.36826988543325      -3.90584306157405      -2.17717612048820
F        -0.34395511114623      -8.68846041962849      -2.46327276393615
F        -1.64706829163821      -7.15839857059478      -1.55277387603515
F         2.93205686681359      -5.21500690167988      -4.02491792642073
F         1.38445421310246      -3.69446501475802      -4.30483820841431
F        -2.30064590233216      -5.62708723077318      -3.43871146805452
F        -1.07377073681425      -4.13690251259045      -4.47157864240485
F        -0.14788664544897      -8.62756250750623       0.13668999766564
F         0.20455904245185      -6.46889626036380       0.24955527621964
F         1.71811133063449      -7.78436640985398      -0.63859830522849
F         1.99394516556160      -6.62274108998105      -6.21304587242165
F         0.45247367161329      -5.09247021899078      -6.55033567578556
F         2.57184480606351      -4.53120226968001      -6.55450692770935
F        -1.51553555174399      -4.51486628235541      -0.98251524777791
F        -2.50014841888936      -3.17825635853086      -2.41221890877679
F        -0.34409355525028      -3.01091273307031      -2.06697822332963
