28
C6H11F2N3O4S2 optimized with ADF in AMS.
N        -1.32407289220840       0.46580749316338      -0.65022459813934
N        -0.01027382683358       0.67559156795063       1.06580637691948
C        -2.27835622846239      -0.12914086829379      -1.60282463662559
C        -0.68632080147904      -0.20382547645086       0.31657389541720
C        -1.07021779716292       1.81340378755706      -0.49704921731528
C        -0.24217947341569       1.94376150892326       0.57834244009178
C        -3.69166071101057      -0.12240095349006      -1.04987891134043
C         0.74956899647839       0.35008281507241       2.27065172593876
H        -2.18781251577304       0.44863288262437      -2.53521124364189
H        -1.92567933742468      -1.15031172043007      -1.81086737791450
H        -0.75908552889675      -1.26647892534572       0.50416314428588
H        -1.51450539141179       2.55920522786560      -1.14405054333754
H         0.17369790841569       2.82388806351157       1.05251989561183
H        -4.37056256016607      -0.56745814646213      -1.79253007702010
H        -4.02681095572482       0.90216650676565      -0.83516912220707
H        -3.76298800146240      -0.69623612553263      -0.11597909655938
H         0.62870097360628      -0.71830526777646       2.47746920564233
H         1.80768998245537       0.59719667447767       2.11339192057792
H         0.31726929814843       0.91073290485698       3.10999726116307
N        -4.15441653964411       0.08049026798767       3.82873507365362
S        -5.21692213227251      -0.96289913149441       3.17890441292914
S        -2.74522151192004       0.27354703641717       3.14667287963968
F        -4.56625290701987      -2.41932186965172       3.60860937353758
F        -3.07401526115422       1.23193583769348       1.79615849553532
O        -6.44433722212401      -0.86938064641464       3.93323903404776
O        -5.23024850881453      -1.00097764351333       1.72539454174397
O        -2.13054421701143      -0.90876352918564       2.53653800613061
O        -1.91185362921129       1.14949944717454       3.95562499203516
