27
C7H13BF4N2 optimized with DFTB in AMS.
N         0.30115534914210      -1.08695531211544       0.50522013875814
N        -1.76264782005042      -0.48513524619009       0.47428133012829
C         1.60386023957840      -1.54719320970075       0.03369616075198
C         2.70003721686769      -0.55549259040716       0.41866790081896
C        -0.68574390162660      -0.67944906969236      -0.28368753621590
C        -0.15436236697923      -1.16875197417659       1.79271212053704
C        -1.45919747251614      -0.78874466541012       1.77365836992374
C         2.50260882985169       0.80022790075991      -0.25774689101428
C        -3.08035370702212      -0.17355993558783      -0.05430683232632
H         1.52865175117331      -1.66201102506275      -1.05061484368271
H         1.78038961521702      -2.52798321644272       0.48131258705534
H         2.71599013853022      -0.42815860658185       1.50583632945671
H         3.65976979221883      -0.98156538704714       0.11396095506200
H        -0.63024613256929      -0.56509570546861      -1.35322360991316
H         0.47026974236941      -1.50113297742407       2.60306654497680
H        -2.18545053361141      -0.71658132891009       2.56429449199811
H         1.55295916895350       1.24400654796171       0.04510176507336
H         2.50369795993196       0.68834490738091      -1.34235785566633
H         3.30806666338664       1.47776601693139       0.02411785836214
H        -3.06901785838568       0.81842148467413      -0.50669771669148
H        -3.32047062020515      -0.92321156414207      -0.81126943858635
H        -3.80442948649731      -0.20508930037906       0.75707866564514
B        -0.88826564814428      -3.02774630372172      -1.95009990100842
F        -1.06690813568029      -4.11771516865526      -2.74884283430813
F        -2.08767489849713      -2.27008081468731      -1.81673675702042
F         0.09211908747781      -2.14184266261916      -2.48909909532899
F        -0.45741997781355      -3.37952806778590      -0.65653061738526
