51
C13H24F6N2O4S2 optimized with DFTB in AMS.
N        -2.15152217790936       0.47941695537480       0.43910463902042
C        -3.23453310703681       1.34148640315982      -0.15152631235404
C        -2.73862294092760      -0.36017415164064       1.54233480852711
C        -1.68960213436557      -0.42959634461200      -0.67381371555171
C        -1.02105789947585       1.29863599917015       0.99038050090478
C        -3.98279851450312       2.18121317258965       0.87455161003351
C        -3.45691929189581       0.46009856837232       2.60485165774403
C        -4.56439052865017       1.30344133010951       1.97957033859726
C        -0.59439019050350      -1.42188915607679      -0.29751655895969
C        -0.23426109369781       2.09285513651545      -0.04204043912364
C        -0.28062746227665      -2.29623685518642      -1.51908681235608
C         0.79191859055340      -3.33115282380410      -1.19016204155013
H        -3.93387753508686       0.66421959607172      -0.64555354673652
H        -2.77557165683244       1.97762989044168      -0.91017652482689
H        -1.92776302207092      -0.93716282798299       1.98904276019725
H        -3.44586549088532      -1.04409956707685       1.06729385381551
H        -1.36207575133451       0.21100264290851      -1.49573237431057
H        -2.57478442786851      -0.97897861687832      -0.99968498208686
H        -1.44720253566066       1.98381416329666       1.72497413368871
H        -0.35357880519788       0.60983195508379       1.51339999026996
H        -4.79600738397292       2.67703919543770       0.33840573360556
H        -3.33265461131697       2.95507368717206       1.29421209853773
H        -2.75505927400929       1.09603130947424       3.15298622346188
H        -3.88784092601922      -0.24870766104039       3.31685332791577
H        -5.03187205451010       1.92951968862845       2.74273891177198
H        -5.32938123960589       0.64752396797603       1.55524346129682
H        -0.93479567461829      -2.06908338447258       0.51356831833601
H         0.31285054789823      -0.90421424024292       0.02758664902311
H         0.50087083647389       2.69156358018300       0.49585753657468
H         0.29868748722785       1.44350717804422      -0.73377011791525
H        -0.87260699878681       2.76807032439826      -0.60865175263978
H         0.05650433176097      -1.66305593639461      -2.34668731913006
H        -1.19462004242531      -2.80836433322338      -1.83287110229237
H         0.45000448156874      -3.99184183626219      -0.39307702095624
H         1.71358783061633      -2.84343011624490      -0.86875841895579
H         1.00562020801781      -3.93325600053934      -2.07287316311863
N        -4.75259629817369      -1.47654770042574      -0.55932164772678
S        -4.42795132995465      -3.04819407878180      -0.65574872740923
S        -6.23293660729906      -0.97335051195284      -0.95192966675838
C        -4.09379367222159      -3.40162679294291      -2.46557207140791
C        -7.36458870635960      -1.48270911023124       0.45360490111410
O        -3.11728339502008      -3.19281910563093      -0.05196201848546
O        -5.47906131042050      -3.93537848652485      -0.23865264892605
O        -6.77879982290395      -1.53874093253651      -2.15587900940337
O        -6.17471251589821       0.46801853564340      -0.82544373903018
F        -3.18656735210886      -4.36309243954183      -2.55958008675044
F        -3.58320421823720      -2.29880851773362      -3.01431559572287
F        -5.17237853570366      -3.75795073905369      -3.12256740014011
F        -6.64668547110270      -1.54140789615623       1.57337771372303
F        -7.93991430550407      -2.64327794799590       0.23935272384292
F        -8.29711168716516      -0.55621097516487       0.60724431042290
