35
C9H20BF4N optimized with ADF in AMS.
N        -0.94546419456234       0.20055044799011      -0.08149774418109
C        -2.29951394515738       0.56675370186567      -0.68084322616340
C        -0.79630917253922      -1.30329261983177      -0.06841082136947
C         0.11854255067539       0.80925981014152      -0.99333675273167
C        -3.45943908511992      -0.12799041867366       0.00813037123796
C        -1.92971613415160      -2.00410570979349       0.66271168452108
C        -3.28039281682728      -1.64432814500654       0.04463553692313
C        -0.81778331686878       0.75678818996863       1.30771711989791
C         1.52406836067674       0.84001869596413      -0.42225816669962
C         2.48857701684405       1.34094337584768      -1.49816157282714
H        -2.23491351644321       0.26620809054195      -1.73958499457290
H        -2.37766848869631       1.66181964302371      -0.62595490479255
H         0.18349367088071      -1.52658450187809       0.37612897066540
H        -0.78085121145831      -1.61211316690501      -1.12623093768816
H        -0.22196166073564       1.83331299512428      -1.21202122700448
H         0.07855366808992       0.21280486697886      -1.91970012170912
H        -4.37019098243345       0.14790873706910      -0.54861779621399
H        -3.59801917357111       0.27598800526316       1.02478960918222
H        -1.91376866262223      -1.74726908783625       1.73555557867898
H        -1.74262761959468      -3.08885415003333       0.59889564069627
H        -4.09934249157652      -2.11969035190553       0.60742782704944
H        -3.32189382454779      -2.04218645506289      -0.98678655595037
H         0.08698411094276       0.33769570039407       1.76370736634913
H        -0.76021968666660       1.85045245793233       1.23746956226870
H        -1.69618758298852       0.46788836939578       1.89061772382036
H         1.55385042976778       1.54037998691926       0.42646355486274
H         1.84680762075729      -0.15572816630452      -0.07036298079940
H         2.50617951273033       0.66789859329236      -2.36981232910426
H         2.19169470766081       2.34454949642109      -1.83790257124958
H         3.50986104916181       1.40619501081458      -1.09653607477924
B        -1.27864875767714       4.04964460589171      -0.16173260788347
F         0.02107091140437       3.63213174698475       0.29976034249490
F        -2.25848331952977       3.42132431210576       0.68435005212233
F        -1.45433095036902       3.52271322239182      -1.48945295872966
F        -1.40126787185513       5.43336314420874      -0.14257159392098
