52
C14H18F18NP optimized with ForceField in AMS.
N         0.02389984779113       0.01783700554669       0.00566368604300
C         0.94192763105985      -0.82822820900764      -0.81740892275622
C         0.92701224445490       0.87810127976482       0.83010080346761
C         2.34845155588157      -0.28035063178994      -0.67186439798918
C         2.34085317211860       0.34730147362250       0.69263519548044
C        -0.80417433745621      -0.84313311414024       0.91027378627446
C        -0.81780321480737       0.86542968839513      -0.89957252724420
C        -1.79412022683195      -1.76803145894765       0.18134130901617
C        -1.82607387484111       1.77254773678852      -0.17139167279892
H         0.66050163148009      -0.86607371441858      -1.89485087140604
H         0.97095769892291      -1.88500312443144      -0.46450778355732
H         0.64019659399223       0.91555245200628       1.90616630507455
H         0.94365123501890       1.93397562504153       0.47386454401519
H         2.53264677810780       0.49822205750878      -1.44527614899767
H         3.11786837909145      -1.07912333310687      -0.75165931450680
H         2.52994335373468      -0.42927340014442       1.46693005359434
H         3.10011778392154       1.15521200203517       0.77687545336739
H        -0.14056359851578      -1.48108920096091       1.53870205753296
H        -1.38239962469209      -0.22082049187169       1.62869021494088
H        -0.16408437254794       1.51519020243292      -1.52615502205982
H        -1.38336549176574       0.23337310153742      -1.61958872257316
H        -2.22991775290406      -2.47433888919279       0.91625917908502
H        -2.63024800077985      -1.19024022255419      -0.26198448335330
H        -1.29789537009499      -2.36121244214020      -0.61308487625314
H        -2.27703181379167       2.47544341387251      -0.90324396303651
H        -2.65159197308888       1.17812740251854       0.26990366080370
H        -1.34063182033275       2.37078803293869       0.62594421879887
P        -3.92656267852257      -5.04419296942441       5.39042899259919
F        -2.57570370457647      -5.87172721938349       4.71494133148061
F        -3.50662368635294      -3.43107193264596       5.83059143101991
F        -4.61676223475843      -6.50820444797325       4.80798184931877
C        -3.79169412649361      -4.19078296369188       3.65422809584569
C        -2.83970390700374      -5.61008951191694       6.88828966335857
C        -5.70186736263387      -4.96448864964686       6.15009811908512
C        -3.91046605257371      -5.09655420052139       2.39685366314489
C        -3.27694158807281      -5.14358906059851       8.29341398932131
C        -6.85635533779305      -4.60088950423395       5.19757119481380
F        -2.56018209452673      -3.55419475904852       3.56077071319536
F        -4.75190662400292      -3.20543696487954       3.54862735039978
F        -1.53954695546197      -5.14292176967125       6.72143756116939
F        -2.80205604159224      -6.99720168230307       6.91613071594413
F        -5.71567227121342      -4.00230200901154       7.14361611557344
F        -6.01359111585654      -6.17787314335390       6.74871022749012
F        -4.00393463960349      -4.29234088480002       1.27523815972422
F        -5.02968275385684      -5.89966501601270       2.42363947222200
F        -2.79133412591432      -5.89568080725782       2.24514307566243
F        -2.29940396067719      -5.50490880305899       9.20411001135788
F        -3.41886115194906      -3.76980111040022       8.35325153093466
F        -4.45043648675154      -5.75404506222420       8.68845362735519
F        -6.82277598779700      -3.25705545440008       4.87675806096694
F        -8.05885164779342      -4.84244117456551       5.83842995903344
F        -6.83503103644735      -5.35681943267897       4.04735203832086
