31
C11H18ClN optimized with ForceField in AMS.
N         2.35709709444765      -0.01456097318177      -0.54544930774500
C        -1.46009583928641       0.05415301667053      -0.68804091700320
C        -0.05474296893796       0.01236614915142      -0.07741932156188
C        -2.53147740332258       0.01521488705000       0.40761353970109
C         1.02565972130435       0.03925760139431      -1.16169627183466
C        -3.94095010782587       0.04145799059265      -0.19408197941698
C        -5.00561446592788      -0.00356109287679       0.89819483517119
C         2.93359341355632      -1.22710736645711      -0.27992975756897
C         2.99818738752285       1.14661368551289      -0.20835332397901
C         4.18747937111869      -1.29739520371691       0.33270632484586
C         4.25169437139057       1.11118764755741       0.40794032898885
C         4.84861540171293      -0.11942106760255       0.67672326034075
H        -1.59432579862439      -0.81794679704567      -1.36500457097654
H        -1.57672487976997       0.98550822206624      -1.28461323592384
H         0.08416915772463       0.88719510054428       0.59483348169799
H         0.05968446963514      -0.91524695564899       0.52491230697844
H        -2.40724545445999      -0.91161036188134       1.01006164328547
H        -2.40216304564644       0.89243997810323       1.07926530865902
H         0.92078085293907       0.96300066950554      -1.77397932925846
H         0.88757990464080      -0.82253470009457      -1.85273875017273
H        -4.07759297532911       0.96915207674616      -0.79128288646974
H        -4.07916679011646      -0.83339089951360      -0.86605784769808
H        -4.90695275076414       0.87579996806497       1.56966503851312
H        -6.01448698942717       0.01433260118488       0.43499024215923
H        -4.90574687076623      -0.93430811343012       1.49629299920627
H         2.42048207011709      -2.14810527904511      -0.53188031432911
H         2.53715685719137       2.10778552489623      -0.40445835978993
H         4.63972067163715      -2.25784539081947       0.54294474744468
H         4.75329336643281       2.03069113182545       0.67804546143797
H         5.81864233856827      -0.16021798978057       1.15561069341297
Cl        5.94290452576490       4.23638121592840       2.52415341428520
