17
C5H9ClN2 optimized with DFTB in AMS.
N         1.18973194730656       0.02371308785197       0.31500824788228
N        -0.95227768342846      -0.09951831401181       0.00461111783157
C         0.19354731531716      -0.80760402116404      -0.04921124291441
C         0.69609226317795       1.31399879911490       0.35441725322999
C        -0.63850035909778       1.23645010234178       0.16252570465740
C         2.58774602937200      -0.32788938046873       0.14242437626763
C        -2.19751947452348      -0.60782410909911      -0.54282657240723
H         0.23821012689783      -1.87684563921768       0.06080832868099
H         1.33422177465348       2.15895677423154       0.54452789937343
H        -1.39495195839183       2.00144560109003       0.15268094762645
H         2.78927485937971      -1.27031729267561       0.65198652614750
H         2.78015389686738      -0.44284016288940      -0.92799915487446
H         3.21036968324740       0.46103710673398       0.55986287413097
H        -2.96262762589723       0.16221340902268      -0.46649317883957
H        -2.02281954149385      -0.86878380275472      -1.59049270872699
H        -2.50675802896027      -1.49502269130683       0.01062922819208
Cl        0.53888211537344      -1.09959370729894      -2.32912847675763
