37
C11H23NO2 optimized with ADF in AMS.
C         1.93823073322585      -1.22826480137459       1.11466193730878
C         1.32264352948273       0.16275445895066       0.94288535364179
H         0.83430854108615      -0.65651127502895      -1.56957166214603
H        -0.62816606669318      -1.64062081145592      -1.04416696389847
H         2.00185341081897      -2.54853066805765      -0.66554596579012
H         0.65674772110771      -2.91184939524371       0.45375942133119
H         1.73361687752317      -1.62851665881130       2.11826971984786
H         3.03041711969331      -1.16918914750657       1.00239276022077
H         1.15778776726401       0.72007476537811       1.87593563449773
H         1.91272016045634       0.78035152651891       0.24919163414449
H        -1.89430744814435      -0.92381898747545       0.73522019867002
C        -0.99580287838221      -0.59693533594482       1.27743674767894
H        -0.58516290367449      -1.49244203014190       1.75423802891839
H        -1.18476498962759       0.20575922449493       2.00289997771589
C        -0.53391543951929       1.17157951395506      -0.39070161283140
H        -0.70805738609189       1.88082099842770       0.43360317248474
H         0.29312525816297       1.56119333850038      -1.00629924163794
H        -2.33361677496010       0.05878201880079      -0.86556997648273
H        -2.63962096592056       0.11862490441562      -4.50700737260019
C        -1.54279441314407       0.75706396940419      -2.72805938229883
H        -1.19926014557848       1.70823325730401      -3.17621347562914
H        -0.73602223292166       0.02312385361828      -2.88221266903700
C        -2.80208296630232       0.24700184607768      -3.42602929098356
H        -3.64057203214336       0.94956827458431      -3.28967352460089
N        -0.00645552423087      -0.08316146440515       0.26834278920947
C         0.33094700959446      -1.17242801764790      -0.73853155260307
C         1.26877019462208      -2.10353856663772       0.02148952831632
H        -3.09134305758800      -0.72344610895189      -2.99084368487881
C        -1.79223032298061       0.94766842160528      -1.22823615597079
H        -2.46312699771394       1.81135537668282      -1.08015207726859
C        -3.39267942792623      -4.36659943200431      -0.62827392411029
C        -2.36760281669832      -3.27309059072868      -0.30137357128683
O        -2.52598135581290      -2.14678876760968      -0.89384187138137
O        -1.44020123089561      -3.57508627990324       0.49931680583850
H        -4.30778251628549      -3.94682697058523      -1.06828859772416
H        -2.94302846284601      -5.05978417493155      -1.35707078209130
H        -3.63050663425620      -4.95094862657255       0.27212484252662
