30
C8H15BF4N2 optimized with ForceField in AMS.
N        -0.68446790091094      -0.89927087030924       0.41460918523831
N         1.50706181745323      -0.54023752245098       0.32443792440311
C        -2.08835349753668      -0.78560028969678       0.80370351289008
C        -2.89654041950466      -0.03399151689930      -0.26142306584467
C         0.36202008070495      -0.26451530181302       0.97754173809515
C        -0.18401111272392      -1.60509859873767      -0.61994798792656
C         2.82571012943999       0.02425397229052       0.59295664675187
C         1.17598927161817      -1.37983202862797      -0.67749083151679
C        -2.38884418434660       1.39306310807145      -0.46780895364661
C         3.13545658011560       1.13557448649337      -0.40320238902127
H        -2.17363131623063      -0.25278385484200       1.77662128793096
H        -2.51287713212468      -1.80342767209068       0.94023310044459
H        -2.85091404606163      -0.58413852697152      -1.22615710383318
H        -3.95995168101013       0.00592914331879       0.05889307185808
H         0.28559438747156       0.41353659051636       1.81934034675570
H        -0.76548600387847      -2.22005597716928      -1.29453622133192
H         2.85830703796482       0.44099963857783       1.62325075345555
H         3.59494201155982      -0.77437899518638       0.51950911225698
H         1.86730315628914      -1.78435403730329      -1.40538291127814
H        -1.35815007684865       1.38293573683296      -0.88256005513574
H        -2.39114328761385       1.94839880284575       0.49450856471648
H        -3.04983125532666       1.92132299908846      -1.18677631199816
H         3.09234944811164       0.74482965909307      -1.44209702480527
H         4.15359823579087       1.53409950615752      -0.21292832291451
H         2.39755081759130       1.95924736736883      -0.29213375532872
B         4.37711728076995       4.70008364894537       1.94595014737573
F         2.99266189230906       4.84444017165921       1.66337211880870
F         5.02272318797012       5.95761301125374       1.80747821829288
F         4.95174919381741       3.77207419813814       1.03816203212855
F         4.54253919263984       4.22662426474675       3.27474290207884
