40
C12H22F3NO2 optimized with ForceField in AMS.
N        -1.43266054925696       0.38947989898129      -0.04979394659091
C        -1.73136355322601      -0.89506188738330      -0.74882794594686
C        -2.51375694225810       0.54897028635623       0.95831975965349
C        -0.11189529335778       0.34720078732510       0.64845505923583
C        -3.05818003601658      -1.43288829795800      -0.22367075121427
C        -3.69733572891856      -0.26538922990828       0.48207282144530
C        -1.49202800800787       1.52945947150301      -1.00230368195168
C         1.11107895029210       0.29501073931490      -0.29673770398468
C         2.37949957479071      -0.08351287782204       0.47840371038433
C         3.61249657793852      -0.07145212362618      -0.43155589823134
C         4.86797201532915      -0.46591528119457       0.34126096384896
H        -0.94898477361276      -1.66914266650227      -0.58053961661680
H        -1.81026010729110      -0.76514515058375      -1.85311971712863
H        -2.80655424771524       1.61211869623030       1.12055852040187
H        -2.21327761465824       0.14397242531497       1.95349300058163
H        -0.07767245129013      -0.54046153785758       1.32251476605357
H        -0.00039095158482       1.24338205973814       1.30157850501542
H        -2.86816262990258      -2.24874563732215       0.50965692610440
H        -3.70492105356601      -1.81700664731113      -1.04199363084540
H        -4.29847364580495       0.32935287180945      -0.23934545320846
H        -4.34106529218303      -0.59507796685843       1.32631517109869
H        -0.80675079255464       1.37592528422450      -1.86397226861640
H        -2.51648598163863       1.64854471878379      -1.42125618258861
H        -1.21202266164586       2.48245930494168      -0.50008752420203
H         0.95067402375081      -0.44493310825321      -1.10886479910579
H         1.26165654561979       1.29484759894472      -0.75870011501232
H         2.25399430068936      -1.10119311899932       0.91001653763981
H         2.53044339005406       0.63756875869689       1.31194060901929
H         3.75566879215274       0.94637395375683      -0.85528805622165
H         3.46714363933483      -0.78601994665603      -1.27085772061820
H         5.04644758244676       0.24463576897310       1.17637105510215
H         5.74589153488439      -0.44317890287736      -0.33799473569487
H         4.76196379919410      -1.49317378463436       0.75086815166983
C        -7.55139409232661       0.08181003045669      -2.13931672639773
O        -6.88437485796889       0.50553871672337      -1.20919026584469
O        -7.86916587156082      -1.09650055202264      -2.16577991245413
C        -7.98341700128460       0.99760680901478      -3.24597003590750
F        -7.47512364101751       0.54137645812743      -4.44808604026838
F        -7.52351446409887       2.28379628774782      -3.02134913472148
F        -9.36416049283016       1.01913400340560      -3.31499837518179
