45
C13H18F6N2O4S2 optimized with DFTB in AMS.
N         3.81527927269221      -1.03353044385308      -0.15908891455116
C         0.10545129643407      -1.83390145526448      -0.44728245397904
C         1.36010363302738      -1.02807093279258      -0.09690415206575
C        -1.16547473729401      -1.06823792274765      -0.06753652404963
C         2.61451448494756      -1.81084915207229      -0.48687737280314
C        -2.42079481235321      -1.87421947003957      -0.41666033164059
C        -3.69149844587508      -1.11494018334961      -0.03958571658923
C         4.18239013672660      -0.90888371220634       1.12645249365107
C         4.53486433015770      -0.47856268365482      -1.14252658363196
C         5.28980551057998      -0.16399433747282       1.46808710047221
C         5.65893579468717       0.26862945976827      -0.85233489396603
C         6.04399246852349       0.43952707896953       0.46878778776491
H         0.13083717275719      -2.79118993212404       0.08332571425896
H         0.09978876307641      -2.04641176393301      -1.52119082174572
H         1.35142729367930      -0.07159333110319      -0.62950438612830
H         1.37763344938497      -0.81555717612982       0.97665851890549
H        -1.15409382914565      -0.85440674974829       1.00679885945206
H        -1.18539827645286      -0.11021999405410      -0.59840829597279
H         2.62650755380167      -2.01626074110958      -1.55779937767596
H         2.67399051774601      -2.75863664823408       0.05163484954271
H        -2.42831617203861      -2.08731571672860      -1.49073606413565
H        -2.39679867442524      -2.83162605423777       0.11427978378792
H        -3.74315104419262      -0.16581915302602      -0.57480792526747
H        -4.56957385408347      -1.70720229958903      -0.29696445035265
H        -3.71155957822071      -0.91085610515933       1.03181686634804
H         3.58105330257246      -1.42813835354180       1.86219817698824
H         4.21063265490052      -0.66684678980267      -2.15755526268744
H         5.57219226362812      -0.08338487185345       2.50934668916220
H         6.23915460206741       0.68361498050329      -1.66599003128415
H         6.93145422435489       1.00812707473845       0.71701279012529
N         6.64411644429122      -4.60345579487187      -1.26188512120423
S         6.86627165960932      -3.75707778205568       0.07535179720792
S         5.71115970242099      -3.95781874331909      -2.38803982578866
C         5.55777766551179      -4.35785430966206       1.28112064600774
C         6.78029909075127      -2.67677527547585      -3.27602539648852
O         8.09340700920703      -4.18238673804239       0.68590123017308
O         6.60347777157176      -2.33043486387221      -0.01735650495377
O         4.57200930515061      -3.18412136224304      -1.90910536582622
O         5.45915008527666      -4.96315871284487      -3.38028216326803
F         5.91204285164586      -4.02330818090685       2.51614100182592
F         5.38991087948347      -5.66482628999304       1.21941844689797
F         4.37815716673706      -3.77037274984636       1.03404260870646
F         6.93792511756906      -3.01228190731258      -4.54305098861264
F         7.96736289474222      -2.56273176937154      -2.70947952906895
F         6.18234369316803      -1.47971310123410      -3.23461548354052
