41
C11H9F18N2P optimized with ForceField in AMS.
N         0.98998299241151       0.15769535547989       0.09019685118314
N        -1.23118749906175       0.08867777209986       0.10411372405277
C        -0.09700881730718      -0.63848143933741       0.08549513063793
C         0.52973833297760       1.42386977704337       0.11185403066828
C        -0.85012971910004       1.38103567486159       0.12054718874020
C         2.38675125845722      -0.25665461037331       0.06660834645487
C        -2.59968108811787      -0.41219227989510       0.10276250734182
H        -0.06358090618882      -1.72104489863336       0.06709637974473
H         1.14957155241133       2.31116499443787       0.11804229306841
H        -1.52358458556244       2.22826567099614       0.13563529305608
H         2.46483208498605      -1.36463519717891       0.04157647389066
H         2.88213643977754       0.15922934228740      -0.83536670447263
H         2.90410139132907       0.11974806063175       0.97395318653367
H        -3.12598659437630      -0.06247180388856       1.01568727125893
H        -3.13407513480548      -0.03534855660725      -0.79455939069933
H        -2.60839440838746      -1.52298793865411       0.08610538098209
P         7.63876535670129      -0.67966797885542      -0.23400229208746
F         7.89899763683665      -0.00168981553240       1.33014970772207
F         8.82014036143211      -0.04993364218461      -1.31933282909208
F         6.61247195552289      -1.48110998316730       0.89058110029467
C         9.26176053804308      -1.62194961596241       0.23137392625469
C         6.92895346131407       1.11706603194918      -0.34917115940376
C         6.52003156109236      -1.64140056123441      -1.46543173938898
C         9.13242562264450      -2.67089437004824       1.35730234210708
C         6.45737553588873       1.60987753014841      -1.74052757875205
C         6.58307356613647      -3.17994936072735      -1.44317194943772
F        10.21468435068796      -0.70081884802810       0.65107751086446
F         9.78703142903213      -2.25909282748938      -0.88183732397704
F         7.89711425327720       2.02438836368339       0.07096090853909
F         5.84514333483653       1.22091680609343       0.50998328411409
F         6.84448517720658      -1.23836904714073      -2.74840349917813
F         5.19869271202194      -1.30208997901880      -1.22943404879242
F        10.38312568181379      -3.19974933835109       1.62277531901021
F         8.30583231616937      -3.70817764210424       0.98576399337914
F         8.65220698532355      -2.10638883048174       2.52469397549803
F         6.19741439021694       2.96710110375793      -1.66270991755890
F         7.42003539412901       1.42305362027866      -2.71422656549996
F         5.28699916960225       0.99343691478329      -2.13206171203063
F         7.86703818887314      -3.64076107460259      -1.63664308252161
F         5.80461177853242      -3.66869823810066      -2.47778280097965
F         6.06968419442204      -3.68525110083467      -0.26294180002479
