40
C12H26ClN optimized with ADF in AMS.
N        -1.63272777147027      -0.28217562412687      -0.17032865316870
C        -1.90258001519075       1.13597008201394       0.32256484461715
C        -2.65325448934264      -1.23165198000337       0.41812739834780
C        -0.26805331876943      -0.73089214556236       0.32246185429277
C        -3.32513426387537       1.57081905575251       0.03330483357836
C        -4.09047080494430      -0.81229525437080       0.15279909054167
C        -4.35417119650861       0.61538085997651       0.63041696699026
C        -1.65999370600896      -0.33140308380110      -1.67427361917903
C         0.91149752421872       0.05588515766400      -0.20830287415607
C         2.20994893842120      -0.48443135624999       0.38456474385484
C         3.42459058784539       0.28555907655574      -0.12652086099487
C         4.73907532268426      -0.22978557382026       0.45026720235544
C         5.94914197636287       0.54481185158949      -0.06523013462516
H        -1.18944761836158       1.79670401216452      -0.22651971436729
H        -1.70197857528095       1.11151303280953       1.40730562852356
H        -2.45596974465799      -1.25146151900717       1.50295446120757
H        -2.43469467300492      -2.22826741098361       0.00317027810899
H        -0.31637435773879      -0.66905559373664       1.42259694783564
H        -0.18813018524258      -1.79613817661917       0.04393559155065
H        -3.43612261949433       2.58621582898172       0.44667367488642
H        -3.45454448910980       1.68076151835219      -1.05678154921469
H        -4.32182778774544      -0.90412317350108      -0.92137764047784
H        -4.74230274319541      -1.53322744034377       0.67351967063135
H        -4.28489664783684       0.64791613468543       1.73383924041953
H        -5.37811774140551       0.92025422759812       0.36168780771612
H        -1.06503099186204       0.53538698226086      -2.05371427744162
H        -1.25840073374187      -1.30587763465002      -1.98538398370001
H        -2.69447140826490      -0.22862812032847      -2.01419621872500
H         0.95401641270363       0.00750413522414      -1.30745322601282
H         0.80580652018630       1.12941527090678       0.01335549800456
H         2.17645131967332      -0.42096787938841       1.48937067186767
H         2.32494456555612      -1.55682739671314       0.13348809397588
H         3.30340199237939       1.35723136215962       0.11586610529653
H         3.45377975120980       0.22848095654296      -1.23033065136202
H         4.84969844576334      -1.30194919819200       0.20204577800318
H         4.70010599478678      -0.16852349279934       1.55394531639535
H         6.01915332289123       0.47466271103576      -1.16284655072869
H         5.86788474147639       1.61288468964568       0.19431994397311
H         6.88837051958079       0.16064380796945       0.36168699506009
Cl       -0.26033241838625       2.61429011820862      -2.06192295128067
