36
C10H20F3NO2 optimized with ADF in AMS.
N         0.09468743222204       0.25312976752102       0.37508032430566
C        -0.78352122094317       0.51226918430538       1.60533410701217
C        -0.72678672238508      -0.20732756772949      -0.80928197145542
C         1.10616185232962      -0.82640065675428       0.74354211785839
C         0.80019891557589       1.55133506758968       0.01051744296576
C        -1.71965717458606      -0.61951619558566       1.97542351845019
C        -1.86744818225572       0.71164027328750      -1.20777088343207
C         2.07860453874825      -1.19880895943756      -0.35667805001910
C         1.87202551757810       1.99865457388039       0.98595634018559
H        -0.06682110341676       0.66819920649610       2.43447828733357
H        -1.32905490380031       1.44217133875912       1.38647845862663
H        -0.02151319952746      -0.32155476962793      -1.64377526830696
H        -1.10036792648388      -1.20689384118445      -0.54576237157994
H         1.60210419933182      -0.45439897112136       1.65362426346406
H         0.51940824899864      -1.69283173897385       1.07369006366781
H         1.21581059324526       1.40456491823265      -0.99813942067557
H         0.00486949964441       2.30623332868154      -0.06161854086612
H        -2.30553340754809      -0.26960106872093       2.84009994329770
H        -2.43291501178943      -0.88904621943314       1.18242410591560
H        -1.15551108999239      -1.49504588980011       2.32964951288191
H        -2.37702176787758       0.25915678663704      -2.07251953379057
H        -2.61200891306747       0.82848404453406      -0.40901085413123
H        -1.52093769121459       1.70667276838257      -1.52005056773678
H         2.79216188878995      -1.91441377095441       0.08009567678003
H         1.60266762266601      -1.69923104640287      -1.21279494228630
H         2.66383416283094      -0.34400672966219      -0.72619576623479
H         2.16426530210387       3.02431366582629       0.71254655344852
H         1.53118741148741       1.99562275854515       2.03017684372527
H         2.76918404370321       1.36781687712830       0.93458881206694
C         1.21062797445725      -0.85841339146911       4.18211999148050
O         0.67159959528905      -1.85778601156680       3.65679348324120
O         1.45015256802565       0.28977587604877       3.70936604821662
C         1.68293127407427      -1.08717736662076       5.66016015114821
F         2.80812542921608      -1.87803646356611       5.69152052468410
F         0.72854526188724      -1.72470823593339       6.40604684051427
F         1.99367854908305       0.06550611938885       6.32380812904417
