52
C16H34ClN optimized with ADF in AMS.
N         0.12883015212861       2.03862008075903      -0.14117953886964
C        -0.46329825866330       3.01276062090021      -1.13227821727248
C         0.80949996906006       2.94965189897216       0.87192260269058
C        -0.96659466660811       1.25180446189904       0.56657704822683
C         1.12626532741740       1.13353036542025      -0.82302772456853
C        -0.96520095202868       4.19041400182534      -0.29187450884313
C        -0.15313499699509       4.12210747297104       1.03063501403746
C        -1.63771760008830       0.19058673027675      -0.28315525702040
C         1.80620052333409       0.14039153230817       0.09782061578769
C        -2.77389010564225      -0.45637096757416       0.51362272067460
C         2.85910253213477      -0.66315976764829      -0.66303728492890
C        -3.48027753628332      -1.56367046932978      -0.26360620556659
C         3.56130116665081      -1.67749875594049       0.23827328556945
C        -4.61551730295390      -2.21556950193695       0.52302110035089
C         4.62403601444857      -2.49377949505695      -0.49243566252834
C        -5.31567554014325      -3.32461901031766      -0.25814004163888
C         5.31479910574493      -3.50843468787707       0.41596975203397
H         0.35938688605844       3.31393680985755      -1.79877161489246
H        -1.23392354510375       2.50376637386731      -1.72541921349098
H         0.98410336273188       2.35804973345901       1.80598029249454
H         1.75977025379951       3.25721357995868       0.40797962079074
H        -0.48905150122051       0.83650673369865       1.48911777880538
H        -1.70160064972005       2.00031189695344       0.89896544804216
H         0.58754138974346       0.62805895984861      -1.64051399811517
H         1.86703013402596       1.81024386485927      -1.28147484906210
H        -0.80408368758890       5.13250619812466      -0.83625641960134
H        -2.04552818226972       4.11048583289076      -0.10074508688807
H        -0.81200779019546       3.95511782252923       1.89627714611444
H         0.40472206587069       5.04934268182500       1.22438549335806
H        -2.04827051815947       0.60197537941857      -1.22463030801323
H        -0.91655366917522      -0.59636352579650      -0.56155185461002
H         2.25566247667729       0.65496381582639       0.96348295851502
H         1.06993123523472      -0.53978258193496       0.55420716262912
H        -2.36234917785647      -0.85858621829627       1.45641981677464
H        -3.50965331446587       0.31748654987194       0.80013490119634
H         3.61287784136171       0.01966004257220      -1.10008190487239
H         2.39167894557093      -1.19353726726829      -1.51558268847033
H        -3.88124959486111      -1.15418905116393      -1.21094040184522
H        -2.74351289992801      -2.33841223108567      -0.54820751820549
H         4.01841879073521      -1.14640225025655       1.09298450281820
H         2.80713899940848      -2.35647816364291       0.67659052996618
H        -5.34935600005049      -1.43974963378163       0.80909892088309
H        -4.21164089442765      -2.62083134133916       1.46844534740411
H         4.15711179543203      -3.01721883759838      -1.34786593669693
H         5.37650492135676      -1.80803660526924      -0.92449808680075
H        -5.75037969467716      -2.93538140146048      -1.19342992084101
H        -6.12837621390961      -3.77950979417561       0.32810196584609
H        -4.60676356045002      -4.12424042778094      -0.52766277364877
H         4.58508382217845      -4.21824963402652       0.83785832763582
H         6.07614919431710      -4.08769001268152      -0.12829293214938
H         5.81082312485746      -3.00438533777602       1.26112456961268
Cl        0.77925138538639       0.72722749952269       3.28808876958245
