78
C22H36F18NP optimized with DFTB in AMS.
N        -1.20831105696324      -0.67926312444711      -0.16557871733902
C        -0.85338032786558      -2.11744987794710       0.13625833937379
C        -2.14719957318440      -0.19505868614993       0.91025748756539
C        -1.84207711970480      -0.61802147830028      -1.53174759382727
C         0.00320324602187       0.21001324803803      -0.16321239095843
C         0.05176547981893      -2.32799572885847       1.34708619140765
C        -2.79600207802470       1.16578605308301       0.68074971547250
C        -3.17709731148107      -1.34315172738279      -1.68317598871678
C         1.10669709805724      -0.18476348899706      -1.14318611310165
C         0.24158604462446      -3.83505188956691       1.57021532980968
C        -3.78806633674550       1.42011231645434       1.82579969795233
C        -3.61855183412981      -1.24283713635664      -3.14949479106187
C         2.32729484967330       0.71791260752682      -0.92047268247158
C         1.10345591641390      -4.09822296109987       2.80204053452137
C        -4.53481776265264       2.73585996867633       1.62540693189738
C        -4.94158407109123      -1.96813195922500      -3.38023217447830
C         3.45304114050137       0.36675550404719      -1.89049471844906
H        -0.38036789800826      -2.52830645741415      -0.75886420825811
H        -1.79303029959511      -2.64684303352292       0.29874923539196
H        -1.57531947195803      -0.17489670887485       1.83964612310564
H        -2.92484233988867      -0.94914732950765       1.00785607288423
H        -1.12140530963693      -1.05630677967230      -2.22607442280437
H        -1.95719160155711       0.43918667739402      -1.78456336422371
H         0.39437847633505       0.21545210921752       0.85659201172893
H        -0.34447738937408       1.21862983971259      -0.39857031141905
H        -0.39573102171589      -1.88840808190161       2.24048331339152
H         1.03040283649718      -1.86472384961745       1.19251355194770
H        -3.33917092490939       1.18444132419828      -0.26696453747215
H        -2.04776621349429       1.96370078330867       0.66055795081532
H        -3.94070466522100      -0.90267765658837      -1.03961211820451
H        -3.07429898146728      -2.39420447547206      -1.41263629602092
H         0.76161538080923      -0.07034981580231      -2.17398158506208
H         1.40151093589884      -1.22638067553817      -0.99841344751371
H         0.71360744822525      -4.27598009459257       0.68595410407231
H        -0.73434210522972      -4.30738121201906       1.70377800976342
H        -3.24522528925235       1.44530713657938       2.77604209023695
H        -4.50487114801919       0.59421333890328       1.87238145157599
H        -2.84409933123108      -1.68298765175796      -3.78781856924815
H        -3.72145528947316      -0.18808051413081      -3.42844792316180
H         2.68136197907661       0.60128982466129       0.10897729071637
H         2.03581010752587       1.76415961650310      -1.05928561460871
H         0.62741920236899      -3.68803280655713       3.69321104996589
H         2.08852085719913      -3.64207153187516       2.69035338171281
H         1.22970484142502      -5.17172284669148       2.93923629761907
H        -5.10182373693787       2.71526868768574       0.69396063194054
H        -3.83670100082490       3.57354338576611       1.59045863609302
H        -5.22820712115387       2.89450460005981       2.45066804757694
H        -5.73938303694063      -1.49518211336136      -2.80913114884507
H        -4.86430936668272      -3.01007984699747      -3.07082399460351
H        -5.20152201492283      -1.93358617125254      -4.43818526357320
H         3.12318407299744       0.49462911955257      -2.92202158116335
H         3.76847417486983      -0.66775633560408      -1.75119548796219
H         4.30855532831066       1.01833412954870      -1.71512952492038
P        -4.54475405414354      -4.01498787159108       1.67163929695309
F        -2.90791738644952      -4.32331343032389       1.99977556921240
F        -4.97358274899894      -5.46444202992313       2.35951394436662
F        -4.10004304621298      -2.50997765373896       0.94638629393790
C        -4.58796597486142      -3.09868023726030       3.41137970413963
C        -4.15494349097491      -4.85959894144812      -0.06326880651224
C        -6.46024600727045      -3.64124131173041       1.28933763669524
C        -3.24146025907673      -2.68862342066314       4.06603968973356
C        -4.10316829005688      -6.40666925582957      -0.14036080971641
C        -6.90496549039701      -2.36243900071770       0.52579603695629
F        -5.24517204777819      -3.81716727901241       4.33169418976975
F        -5.25840617193248      -1.93605917076268       3.25190280045772
F        -2.92748910840339      -4.43871097963811      -0.46887397487476
F        -5.00960494896522      -4.44213967753032      -1.01412897253541
F        -7.12228383396602      -3.62282680633047       2.46045222480538
F        -6.93591492335483      -4.69025251095021       0.58928475494368
F        -3.46074661446576      -1.90123280620739       5.12000203496938
F        -2.48873921323756      -1.97673425095223       3.20478557516020
F        -2.52442968644143      -3.72427715508000       4.47594224282301
F        -3.22273882411267      -6.89301785842258       0.72937670671540
F        -5.28760319369349      -6.95202291386357       0.09898390872605
F        -3.71639431123391      -6.78578798981418      -1.36372024954236
F        -8.22251949108256      -2.37051236888631       0.33130535027317
F        -6.32103764885367      -2.27351516377403      -0.67224490906033
F        -6.59995178704940      -1.25139938098324       1.19522019833337
