41
C11H24BF4N optimized with ADF in AMS.
N         2.45920010215210       0.61474954135112       0.18448519313402
C         2.73994292388236      -0.55198573207081       1.13094044527015
C         3.66117384276543       0.64212324085044      -0.78066292772000
C         1.17640262088513       0.39943471133571      -0.60069978728277
C         4.25236899887289      -0.60503702414276       1.23137127024722
C         4.70071883792841      -0.32768973030711      -0.20928705080031
C         2.40481638718650       1.89160442806812       0.95529038841512
C        -0.06265127945586       0.20085850287350       0.25282258084745
C        -1.20243584037636      -0.33848445578845      -0.61651424166350
C        -2.48864740881637      -0.55203196743946       0.17664306045769
C        -3.61495082986277      -1.14624821679541      -0.66633872867552
C        -4.90311353088277      -1.35102957038813       0.12740677601745
H         2.34976431239735      -1.45800734096967       0.64483393336847
H         2.21530947181052      -0.36919190039905       2.07796049119995
H         4.00339887159465       1.68474941210955      -0.83648888731062
H         3.29822137247157       0.30524643775027      -1.75960371768077
H         1.36549590657399      -0.49822203716353      -1.20860484579340
H         1.07762681353825       1.27397558241120      -1.26620673003733
H         4.56892644687160      -1.60328852169562       1.56672283668835
H         4.64361586867461       0.14397832588437       1.94108445602504
H         5.71737590849066       0.08680659855887      -0.26684349378920
H         4.65349349780465      -1.26669328721146      -0.77928386854885
H         1.56924478001942       1.84894787693693       1.66436767854451
H         3.35091850560282       2.02062433811237       1.49585986994413
H         2.25904264288112       2.72293990582664       0.25233844238948
H         0.14176554556730      -0.54593506995346       1.03763317319942
H        -0.37734168837317       1.13923849663242       0.74378720118584
H        -0.87007762306252      -1.29566050355570      -1.05406136207447
H        -1.39593723896664       0.35552312299064      -1.45585586671981
H        -2.82416524984650       0.40895435685884       0.61205123707500
H        -2.27944856559199      -1.22735105292757       1.02789142730235
H        -3.80979458748690      -0.48334105968584      -1.52959816239372
H        -3.27602984267234      -2.11056903525773      -1.08578369994878
H        -5.27069281684352      -0.39560336641734       0.53711378217090
H        -5.70083390429248      -1.77859606445372      -0.49830770813782
H        -4.73729966728654      -2.03594591994276       0.97497834734305
B         2.33552357849166      -3.04677984605240      -1.36746425344223
F         2.15737251704692      -4.17535784428968      -2.15931606793233
F         1.14278565401723      -2.73936477275246      -0.62029453200008
F         2.63240525649644      -1.89013154370384      -2.18450546925285
F         3.40604659399312      -3.21180670088702      -0.43640545372123
