41
C11H22F3NO3S optimized with ADF in AMS.
N         0.33623552362446       0.22432917312899       0.12304670933094
C        -0.38037178792726       1.36611876665439      -0.59070037484723
C         0.35813446261187      -1.00833708615239      -0.77484451388613
C         1.76564974392863       0.70464841245981       0.34854815894017
C        -1.75855760494475       0.98814241168041      -1.10151767234651
C        -1.01191703576148      -1.38300996946751      -1.31408652703436
C        -1.66271861153554      -0.21028048761881      -2.04279064762569
C        -0.32619717008800      -0.08150411816934       1.42284141764166
C         2.66682943988078      -0.24863406482794       1.11324935642612
C         4.11826917704002       0.24214962511884       1.06854945007088
C         5.04659527978764      -0.67936530463173       1.85531092336381
H         0.27184607873253       1.62805852346520      -1.44353590966623
H        -0.41117911992925       2.20080140820253       0.12711955741047
H         0.78765247806426      -1.82132398347903      -0.17377012845337
H         1.05458168952974      -0.76848528071550      -1.60013058498307
H         1.67583817246127       1.66922196870754       0.87521566370975
H         2.16456919319590       0.88913019888083      -0.66017585251195
H        -2.14505188839633       1.87204726135062      -1.63563760813403
H        -2.46406120880604       0.78707135583640      -0.27512545458295
H        -1.67474990135589      -1.76221330393911      -0.51483979645924
H        -0.84444782629129      -2.22350839992961      -2.00828651535920
H        -2.65933750762920      -0.49265910057093      -2.41654374942199
H        -1.04187555981473       0.06726639894201      -2.91128423315590
H        -1.37012047019171      -0.35618709803070       1.24179736665892
H         0.19528250559898      -0.91776478984903       1.90271741998945
H        -0.28098430257057       0.80938841592006       2.06318602900323
H         2.63664805502435      -1.25217860373665       0.65924291759572
H         2.35078598083261      -0.34169736874483       2.16699035986817
H         4.17919187575246       1.26868012219657       1.47290848053870
H         4.44035395404842       0.29497101022541       0.01429371119932
H         4.99575365765805      -1.70903305809937       1.46671458907270
H         4.77177143268606      -0.70642233035374       2.92234681286117
H         6.09232830517429      -0.34611224117560       1.78414971566531
S         2.37712990736062       0.80272987298639      -3.65989673833885
O         1.35625370214321       1.73681484635690      -3.12216844908926
O         2.51189961290567      -0.43749394826586      -2.85274291394170
O         3.62721754606362       1.40356345336267      -4.11599737239287
C         1.55855131155197       0.18922147060201      -5.23707426499083
F         1.42740956032306       1.19187507735854      -6.14173356457017
F         0.30270923726537      -0.30220049526677      -4.98220062164858
F         2.27273115609619      -0.80974364091166      -5.81473288010642
