48
C12H22F6N2O4S2 optimized with ADF in AMS.
N        -1.09763570093411       0.94760064999779       0.16304995946499
C        -1.67771206327085      -0.27304379674775      -0.51334904373101
C        -2.16618481079062       1.29281788144900       1.18621382723622
C         0.21399500102376       0.65771213430190       0.86372789247292
C        -3.17493346381427       0.02013784327784      -0.64772145818058
C        -3.49007908599306       1.06066291932584       0.46109669143411
C        -0.94267253688363       2.07124864662777      -0.82144709467232
C         1.36844953251230       0.32407505760246      -0.06224522832927
C         2.55761662708057      -0.17669031255266       0.76235896130069
C         3.83039933170036      -0.30808655237798      -0.06997774433300
C         5.02335007786608      -0.74682463087186       0.77493504143125
H        -1.48894988324257      -1.11793556145176       0.16589236296848
H        -1.15732667360148      -0.44968826615163      -1.46237396239221
H        -1.98639186458891       2.31430617654623       1.54636960870273
H        -2.02583522250495       0.58150835463584       2.01378618250028
H        -0.00149977862276      -0.17690913182198       1.55083719133539
H         0.44996405215525       1.54837494993530       1.46279340781870
H        -3.75250045789553      -0.90783883096362      -0.52803293860264
H        -3.41116860388340       0.41985366270366      -1.64437188266822
H        -3.87149720842808       1.99710927449016       0.02903393524973
H        -4.25100063554013       0.70026031202277       1.16762260180817
H        -0.24259798668741       1.75568062612625      -1.60217147259968
H        -1.92361241340144       2.29004067580801      -1.25873725840620
H        -0.55290559569640       2.94786443759810      -0.29045608980755
H         1.08146772562474      -0.44536591446958      -0.80158450514047
H         1.67678720055298       1.23386075623359      -0.60112492311848
H         2.30933156604321      -1.15108383759897       1.22367417585379
H         2.74195814421601       0.54012322558693       1.57900393281547
H         4.04858060157003       0.66967012479989      -0.53568649680670
H         3.66627796522860      -1.02483454084514      -0.89607335268666
H         5.22202115791870      -0.01153594122605       1.57050686237535
H         5.93429542423170      -0.84236894578602       0.16539625345806
H         4.83187142399443      -1.71977522472407       1.25563163693137
N         1.40650400842244       5.11003685400522       2.03592308937665
S         2.21102739866475       3.94149476425434       1.28212138412848
S        -0.11251069681127       4.95412755888268       2.47789484671298
C         3.84381528893072       4.86813000658584       1.15055521134359
C        -0.10785669491056       3.93767075097152       4.08301375863108
O         2.49267194434223       2.77385531321547       2.12463623688970
O         1.79804495457895       3.68212691405807      -0.10298597322976
O        -0.92606293150052       4.10865728541503       1.58357201471978
O        -0.62337990902832       6.24641667124603       2.89622530486537
F         4.75635828205913       4.01306754226661       0.61872653831824
F         4.28100491061188       5.26844075660918       2.35989889365394
F         3.73192532822378       5.93987357940209       0.33931449496893
F        -1.29534512150924       4.11866046619811       4.71589528989290
F         0.88651575052717       4.30852017216405       4.91031782346411
F         0.01871299325974       2.60397453534550       3.82355524858129
