32
C10H19ClN2 optimized with ADF in AMS.
N         0.62220681492009      -1.57939427563688       0.10809961869199
N        -1.48823450893920      -1.14368436103702       0.24607913720269
C         2.06071277104425      -1.52267501889382       0.41784052842181
C         2.78847878268575      -0.58521207760167      -0.54036305081002
C        -2.74485149201300      -0.54993464776491       0.71162999612757
C        -0.31511133650334      -1.02211358940319       0.89151894725947
C         2.25158041515533       0.84409707757210      -0.48688187819983
C         0.04267771745231      -2.05915768322069      -1.04999799888833
C        -1.29151534951200      -1.78096045569532      -0.96607278003700
C        -2.91750590638794       0.88250330111558       0.20929885340801
C         3.08166448550711       1.80633387525006      -1.33055670565068
C        -1.84576778144664       1.83842596663686       0.72567503278067
H         2.12073612566047      -1.13348166607340       1.45052428059936
H         2.45597798737127      -2.54964587560163       0.37982967950330
H         2.74258865489083      -0.97789823294239      -1.57395054064931
H         3.85486675371642      -0.59514225373107      -0.25064556798694
H        -2.71952167821141      -0.57740266913665       1.81112858189253
H        -3.56220156960239      -1.20250195922921       0.36873413945324
H        -0.03850691275962      -0.44232265874870       1.84621034327818
H         1.20593940083768       0.85320389113403      -0.84544262176807
H         2.21452534511754       1.17179943206245       0.56805053124998
H         0.61304622263399      -2.56962227191252      -1.81587177795830
H        -2.11059455392655      -2.00274044697581      -1.63915182495817
H        -2.93393014402813       0.87585140928237      -0.89557002830127
H        -3.91877139918741       1.21494679395204       0.53506089239138
H         3.08409407840032       1.51442517734436      -2.39390172286456
H         4.12863350683481       1.82735107712380      -0.98719835793605
H         2.68891623278651       2.83167986267107      -1.26142697968366
H        -0.84458587684918       1.58014769491148       0.35093988559666
H        -1.77562381684201       1.81932834197780       1.82478726363126
H        -2.06318239463179       2.86914380381753       0.40835542372034
Cl        1.00658673092593       0.62011431825334       3.04147587948375
