40
C10H22F6NP optimized with DFTB in AMS.
N        -0.60056931397454       0.38701597250234       0.40827024592632
C        -1.58645976630698       1.46419278879580       0.03371487346469
C        -0.98943502464562      -0.88781556802355      -0.27111908569562
C         0.74062768356005       0.85314194868251      -0.09521025246681
C        -3.02636694451439       1.09307883635003       0.35213479440151
C        -2.41327572100214      -1.31370899350901       0.07204705048828
C        -3.41539012026362      -0.22559073058138      -0.31139832499854
C        -0.53831141906201       0.20255984908234       1.88567324832023
C         1.91504184929844      -0.05257848967570       0.26298718472557
C         3.20224390400190       0.54037783488288      -0.32555234998921
C         4.41388507412416      -0.31913229484203       0.02724609000893
H        -1.46855291442346       1.63241200624619      -1.04030353962190
H        -1.30031373674017       2.36507926987100       0.57556467499910
H        -0.28123606053334      -1.66109692352488       0.03282679427673
H        -0.89390718751653      -0.72325069020821      -1.34836912767431
H         0.89837316162945       1.84524008923651       0.33365625686951
H         0.65767037135160       0.94783901701770      -1.18138538217524
H        -3.65827614163833       1.90103820975843      -0.02433074184272
H        -3.17465682340133       1.03917522205997       1.43267128813711
H        -2.49264509651359      -1.54147416082755       1.13812564553003
H        -2.62556812435059      -2.23162873916571      -0.48239067449702
H        -4.41765310502978      -0.52148255684457       0.00650092724076
H        -3.42424743621851      -0.10548450715615      -1.39982984688176
H        -1.54323989814953       0.13897511543485       2.29060112005813
H         0.00556232512933      -0.71274690354169       2.10796983085313
H        -0.03579720966811       1.06013123114056       2.32459766437628
H         1.76662928521500      -1.06085491062416      -0.13470768050578
H         2.02260385911084      -0.12504910491185       1.34779969068824
H         3.34482883676704       1.55199245088132       0.06638172556996
H         3.10625135282896       0.61102646741679      -1.41408246427854
H         4.29661533806522      -1.32884045623142      -0.36843259186217
H         4.53623589946485      -0.38075542198297       1.10895927864153
H         5.31492764711613       0.11984553752308      -0.40015022357739
P        -0.68682264967048       3.67075671494337       3.12665979786149
F         0.20847304416720       3.15561018468590       1.77177910710976
F         0.07662137644938       2.49124374672182       3.99850798995097
F         0.48717094214948       4.73520969073198       3.48051210892351
F        -1.56940188128085       4.10759773624874       4.41502247555884
F        -1.44709576058022       4.75247015983252       2.16312007256244
F        -1.85906605434493       2.52779720680418       2.70796368442396
