54
C14H26F6N2O4S2 optimized with DFTB in AMS.
N         0.59888749923691      -1.05706408666206       0.28238187865749
C         1.78596757517794      -0.27199392203209      -0.21450492786283
C         1.13181929960662      -2.42144921862674       0.67617354474659
C        -0.00636062122382      -0.39192317099372       1.48598235750947
C        -0.40065693974450      -1.20383777996506      -0.83333484248520
C         2.83248314642719      -1.31117081450176      -0.58580903211945
C         2.64151523399009      -2.36637608121999       0.49761915651756
C        -0.54704033762406       1.01001905944500       1.22537362797211
C        -1.68779781316847      -1.91167223568160      -0.40325756302432
C        -1.02395345612867       1.61242414663221       2.55410256257719
C        -2.31219031688574      -2.68060199617558      -1.57330258042121
C        -1.62599505219719       2.99922941814485       2.34569061046626
C        -3.52976920078716      -3.47198548905547      -1.09952642370669
H         2.14813333535231       0.35049890178904       0.60623138722438
H         1.48586428077544       0.36645059202849      -1.04489991687087
H         0.68644502373722      -3.17190435068843       0.02250433746649
H         0.83388408449815      -2.64037326434888       1.69996182669816
H        -0.80800342754239      -1.03970449375506       1.84253739996394
H         0.77438802324873      -0.36273293554881       2.25042558645502
H        -0.62016980067600      -0.20358010231207      -1.21403765345725
H         0.10650900169521      -1.76507879176024      -1.62291233174416
H         2.63057782602948      -1.72855302350292      -1.57568526286805
H         3.83336101564768      -0.87878046823844      -0.58071515431588
H         3.12792455824893      -2.05126594858858       1.42433470497689
H         3.03511523102248      -3.34053192838677       0.20734453708538
H         0.22510495941501       1.64973929311417       0.78674996859233
H        -1.38802312437732       0.96804075551208       0.52757179743970
H        -1.47737930741964      -2.61952659165912       0.39844301479041
H        -2.40210156378656      -1.17843461036817      -0.01939978187681
H        -0.17771856663902       1.67837686919055       3.24528241299067
H        -1.76901807985048       0.94927233223890       3.00162209226167
H        -2.60163884899876      -1.98231053496217      -2.36597613403138
H        -1.57027661918400      -3.37276464430214      -1.98536520799031
H        -2.48514386141552       2.94720097438476       1.67552959810575
H        -0.88911721393108       3.67917355809341       1.91505842927526
H        -1.95586886515280       3.40400366987519       3.30203431089538
H        -4.28378346927835      -2.80282246553925      -0.68380561755992
H        -3.23650638581926      -4.18797669666424      -0.33144713330895
H        -3.96741821280901      -4.01583106324055      -1.93632666517484
N        -1.25837975798202      -3.09281245000454       2.61604096016723
S        -1.01219428692969      -4.66129915861713       2.34403308611606
S        -1.39160177521151      -2.60009770566954       4.14029972195397
C        -2.63773714983093      -5.55790129456665       2.60252167719405
C         0.33363742845577      -2.64567897489080       4.88129909406025
O        -0.80004863651002      -4.76059488398043       0.91221045938535
O        -0.04661771555348      -5.28492352170848       3.21292875908733
O        -2.21691958643254      -3.41367775894038       4.99001672089045
O        -1.65967735368853      -1.18198497972141       4.05503327597430
F        -2.66721950486120      -6.61185911788886       1.80275204466221
F        -3.63288669077657      -4.74686813054364       2.26987556897847
F        -2.78695773387403      -5.95495047801201       3.84570552766072
F         0.46679033830012      -1.64121414342572       5.73277122177484
F         1.22235901847502      -2.46106206658516       3.89300882217184
F         0.60550372784999      -3.77254563581399       5.49690129707292
