41
C11H21F6N2P optimized with DFTB in AMS.
N        -1.92040473398505      -1.69984000186564      -0.58778819823591
N         0.11614547808106      -2.15016238547302      -0.06168809433594
C        -3.29580132899425      -1.22573461838815      -0.46731075210008
C         1.32815997323825      -2.26053846047996       0.74438676373183
C        -3.41882011025390       0.23463626561140      -0.90734137310208
C         2.24568753265708      -1.05458766505659       0.53318620209276
C        -0.98950590689866      -1.53717611632652       0.34666492515914
C        -1.39282955888317      -2.42035570140732      -1.62628973520550
C        -0.10553131245617      -2.70542670529811      -1.29274021811608
C        -2.65929124279463       1.18889005778083       0.02002071122573
C         1.61610100532489       0.25241198479191       1.02563660505490
C        -2.95137439362022       2.64716495257049      -0.32597946152078
C         2.60608507927922       1.41141886448776       0.93631378004676
H        -3.92269342009063      -1.86713029940841      -1.09145273451890
H        -3.58991242356414      -1.33802334339843       0.57999037072315
H         1.01382029485573      -2.33265224039317       1.78926085008817
H         1.83667043360910      -3.18279857776854       0.45359932941047
H        -4.48345663999207       0.48662308786938      -0.89845005629555
H        -3.05569705351259       0.33958793103929      -1.93483200352810
H         2.50314811642471      -0.97246063294875      -0.52788602426276
H         3.16714262456295      -1.24808928191666       1.09030364487863
H        -1.11220039730653      -1.02811006023366       1.28467462895402
H        -1.96882977655986      -2.67694779963396      -2.49813134351321
H         0.65262915124721      -3.25894377358292      -1.81858827880929
H        -2.94619826400635       0.99200161744800       1.05777313240657
H        -1.58331697481862       1.00627759737551      -0.07200107105399
H         0.73452687505569       0.48402178229846       0.41787094197697
H         1.28647813823782       0.12786524507145       2.06150074954116
H        -4.01456968039725       2.86174411926396      -0.21203263820981
H        -2.66067558417980       2.86308578949342      -1.35522094729573
H        -2.39108368312518       3.30375248460237       0.33932219301981
H         2.93635915274477       1.55660219148082      -0.09353023177782
H         3.48055172743722       1.21587496213497       1.55799517636462
H         2.13202987397456       2.32962524457005       1.28272203558190
P        -1.68013212613225      -2.08688766365155       3.65495576961397
F        -1.30644927660135      -3.08550947394055       2.35723335390132
F        -0.39396917773195      -1.10326087454572       3.17491019135817
F        -2.66704195744632      -1.20059517690125       2.60955652007252
F        -2.02442864370056      -1.04797178695276       4.85338698835713
F        -2.94041948312499      -3.04099857908703       4.03057603274129
F        -0.66761981835378      -2.93975335033139       4.60046384138047
