54
C14H26F6N2O4S2 optimized with DFTB in AMS.
N         0.45957950457494       0.01053612988528       0.01044262515299
C        -0.86692604713073      -0.60335668793399      -0.33096913671526
C         0.48353681861444       0.31905282956200       1.48266350617544
C         1.60474032618951      -0.90662998725698      -0.32853806261360
C         0.55266328492321       1.30386387530664      -0.75967168488845
C        -1.18622002503037      -1.84385718638435       0.49566369651659
C         0.18730282240894      -0.89339897916347       2.35236907496968
C        -1.15555897430991      -1.52135694986182       1.98921853133737
C         1.81468794838708      -1.16265183752022      -1.81896196535338
C         1.81896796314690       2.12194639646540      -0.50883851851796
C         2.83123654950857      -2.30016556652091      -1.99150991845899
C         1.88736100075954       3.27436489691700      -1.50891506352697
C         3.14104972073349      -2.53807966797944      -3.46699083956953
H        -0.86406243332849      -0.83928992763371      -1.39672905498665
H        -1.62423706635044       0.16410939877666      -0.14710940330394
H        -0.25811362806901       1.10316971719876       1.65699337770218
H         1.47438535108766       0.70716309703906       1.71557508311474
H         1.42459753520709      -1.85174229970203       0.18458398347496
H         2.50369245624747      -0.46061537817139       0.09790410029720
H        -0.32495196664601       1.89469070683300      -0.48261196461873
H         0.46699734445363       1.04739393571107      -1.81864796161295
H        -0.48582978767823      -2.65120259029471       0.26765444173652
H        -2.18503193158524      -2.18042432359136       0.20518297246186
H         0.17049308919353      -0.54791084310123       3.38894480895182
H         0.98788707342734      -1.63145890963007       2.26597795463525
H        -1.96672360578251      -0.82637740560017       2.22968999422155
H        -1.30792610598152      -2.43610188985208       2.56618061935323
H         2.19979541101835      -0.26356003133194      -2.30733973264351
H         0.87611364722350      -1.44027424471430      -2.30825335861089
H         1.80658692303813       2.52874849822338       0.50367278061191
H         2.71200478751038       1.50349425108522      -0.61187021483734
H         2.42763471401765      -3.21585376943103      -1.54709020598240
H         3.75190894006418      -2.04455101215927      -1.46002590448981
H         2.77682702926324       3.86968053119477      -1.30726880680291
H         1.94357867217046       2.89779600179969      -2.53120603608945
H         1.01022742460711       3.91627485513409      -1.41935600190983
H         3.57891955898175      -1.64468251611425      -3.91394960056137
H         2.23429263820617      -2.79503430305905      -4.01673309870805
H         3.85280144280459      -3.35732148878624      -3.56549683850896
N         3.65526689609976       0.71383034069501       1.64713822627315
S         3.67866781977930       1.83295626208113       2.80744234944068
S         4.86336718921085      -0.34765778015699       1.62207288246561
C         4.89395233480718       3.15096823151161       2.26124138053969
C         4.50779725663189      -1.57952933848758       2.99285506620178
O         2.39452674345585       2.49944389182507       2.70965910337940
O         4.11068776859557       1.37560049094402       4.10148066632353
O         6.17358070069273       0.18529596946248       1.87706785308882
O         4.65430688327963      -1.13062190766071       0.42275694619433
F         4.47359543906666       4.32795143978777       2.69678771168927
F         4.92211697347928       3.18045108294635       0.93248708401921
F         6.10433519037084       2.92759862009736       2.72043725836299
F         4.90329159510748      -2.78377410531685       2.60843819005658
F         3.18563514138717      -1.62408949810454       3.18617479605635
F         5.09941291455936      -1.27268496376215       4.12398433790626
