54
C14H26F6N2O4S2 optimized with DFTB in AMS.
N        -2.88439141573004      -1.24373977872853      -0.48129778209618
C        -3.48902907002623       0.03811746464036      -0.97684368675289
C        -3.93331611442423      -2.07637034445243       0.20589914072391
C        -1.82427320262469      -0.96327257860552       0.55877951639547
C        -4.72740578928036      -0.17612923005873      -1.83764192533049
C        -5.17058562669354      -2.31461524904140      -0.64801577143708
C        -5.77858327900919      -0.98257885818281      -1.08071741845256
C        -2.27487602264751      -2.00133901991184      -1.60458947725147
C        -0.78087965666314       0.07756979231464       0.16838099284010
C         0.19811434202709       0.24683442062949       1.33702736667490
C         1.25483894377272       1.30750162235221       1.01726122109200
C         2.22356171767370       1.49056127807343       2.18978822684292
C         3.27702384814647       2.55256450573278       1.88007260567181
H        -2.72205770034665       0.56557996206577      -1.54609311660250
H        -3.75212508720734       0.62384041412101      -0.09677295110251
H        -4.21472882727523      -1.53422034325041       1.11295366446950
H        -3.46139351345008      -3.01978824979952       0.48933845420972
H        -2.34576088859529      -0.62489109570364       1.45676795385496
H        -1.34556503709721      -1.92165286732252       0.77765407949621
H        -5.12127494858656       0.81426643472310      -2.07954966434652
H        -4.47349295684436      -0.67310201095481      -2.77918989550602
H        -4.93380811107624      -2.93023110363064      -1.52109916189049
H        -5.88299840182229      -2.86718966356574      -0.03155931963043
H        -6.10461556669774      -0.42144404595541      -0.20089503740499
H        -6.64606092200089      -1.15886768164050      -1.72064905856548
H        -1.50882799020608      -1.38726074136708      -2.07312875485963
H        -1.82972137869785      -2.91450066692064      -1.21356533255169
H        -3.03759162934621      -2.25162198897320      -2.33718780919249
H        -0.23741246229500      -0.22405097394343      -0.73230761159653
H        -1.26204764500105       1.03978496731039      -0.01906620559000
H        -0.36270628698683       0.54701537589627       2.22749690376658
H         0.68616423778882      -0.71017334109115       1.55065366922571
H         0.75830521519214       2.25937155264268       0.80154184746898
H         1.81279746121056       1.01065681585429       0.12201343979016
H         2.71860062052168       0.53756560228844       2.40538304680681
H         1.66107075899628       1.78485680020841       3.08175456908282
H         3.86231702610413       2.26777533121402       1.00444716249159
H         2.80281304377067       3.51479659753611       1.68248411923082
H         3.95287357165041       2.66603655534629       2.72779432018764
N        -3.87141838548883      -0.25947418657846       2.90793057311911
S        -4.25271504242186       1.19890500054608       2.36631617631670
S        -4.83691941145801      -0.99075355522954       3.97272825681530
C        -4.54713531612973       2.44580687945332       3.73666750136999
C        -6.55115715773613      -1.19911745388290       3.23677972530877
O        -3.05353818788205       1.68471143172307       1.70531111384550
O        -5.46695926392635       1.20275143053815       1.57071176439891
O        -5.04616060329375      -0.23231669407470       5.17662147592507
O        -4.34570900466349      -2.34038464647711       4.06764422640066
F        -4.41469055321317       3.65124608856613       3.20704123138954
F        -3.64924700078131       2.29388220070010       4.68989308663069
F        -5.75900481382245       2.32473600881818       4.23301964899893
F        -7.16878323031208      -2.18187075205663       3.86787059815548
F        -6.44701996510819      -1.53815526777182       1.94591741935461
F        -7.27170837318546      -0.10258809382362       3.33127282260808
