36
C8H20F6NP optimized with ForceField in AMS.
N        -0.00042894499103      -0.00016849618326      -0.00136669649179
C        -0.84933461507999      -0.25688579196134       1.21486786842530
C        -0.84939204256736       0.25803559395642      -1.21709642351461
C         0.84762996419253      -1.21674005281473      -0.25913455100892
C         0.85038144202511       1.21422817888582       0.25696572473740
C        -1.90467841794632      -1.37201779104319       1.07612662213736
C        -1.90334971348407       1.37450336652804      -1.07697878167038
C         1.90223546523426      -1.07769700638191      -1.37542028287779
C         1.90205450111555       1.06934224893788       1.37594817262444
H        -0.21390868138953      -0.55168526324712       2.07695706006931
H        -1.37209948981926       0.67079531201453       1.53589187033442
H        -0.21363484144535       0.55105087295569      -2.07966689148831
H        -1.37434056201790      -0.66874367327790      -1.53732117938714
H         1.37184916403218      -1.53770374565574       0.66773244095792
H         0.21116239129236      -2.07874303672747      -0.55219047514570
H         1.37549537263282       1.53398461268107      -0.66991100525129
H         0.21609198280737       2.07816814581111       0.54921327516484
H        -2.46062559952108      -1.45616254030131       2.03359815437945
H        -2.64902576984571      -1.15074342525629       0.28643127226373
H        -1.43754583466065      -2.35901605688769       0.88801064511702
H        -2.46074381553734       1.45932289282505      -2.03353498356852
H        -2.64714763488839       1.15401756869411      -0.28639189372562
H        -1.43481976409742       2.36087650455228      -0.88911028017333
H         2.45826943889096      -2.03505399061083      -1.46017114536606
H         1.43431228013927      -0.88949032572644      -2.36201314913360
H         2.64699188174139      -0.28786631973208      -1.15515157897425
H         2.45602656821721       2.02410832212285       1.47614164297173
H         1.43282828315384       0.87637528599156       2.36028128988313
H         2.64893460208458       0.28305196832187       1.15104473432936
P         3.60375898948604       4.49150982835914      -1.71342027015763
F         5.17222066213338       4.80527556134759      -1.08725795588561
F         3.23272545834739       3.62003629309390      -0.28452897904031
F         3.01906249561722       5.92428743923758      -0.96796475010117
F         2.02967515283814       4.16304839968944      -2.31764269673405
F         3.98704745898321       5.37735908336618      -3.13346922352914
F         4.18221457832659       3.04528504033519      -2.43752023287021
