51
C13H24F6N2O4S2 optimized with ADF in AMS.
N        -1.35599712113380       1.06283737045874      -0.21819680308078
C        -1.63143551553078       0.67085692671371      -1.67524821931152
C        -2.66461605053031       0.75658083212043       0.49426844428312
C        -0.25643055045253       0.19936681731516       0.36328774372448
C        -2.82842132666043      -0.29384524693733      -1.65033530568664
C        -3.16204171444514      -0.51746497898823      -0.16409020967708
C        -1.03054007180720       2.54137591200732      -0.14040810917251
C         1.13727705463664       0.49152368496665      -0.16609374333594
C        -0.75417699081618       3.05174412871917       1.25512683810999
C         2.14013132403120      -0.54694181985148       0.34231159788392
C         3.55880149686022      -0.27389544897139      -0.15617937415056
C         4.56945696199928      -1.30653357221331       0.33476520095999
H        -1.85283719719004       1.59634930638579      -2.22327660414374
H        -0.71208552222760       0.23014344371952      -2.07792409868650
H        -2.48205579257873       0.68899557588135       1.57383079732284
H        -3.33743238584139       1.59495126187062       0.26235601620221
H        -0.29053033417739       0.33843659653646       1.45437886251147
H        -0.53742344182294      -0.84216605677588       0.14697432074560
H        -3.67705441078641       0.19395093337211      -2.15112916413117
H        -2.60890408429337      -1.23576461095838      -2.17209295934913
H        -2.65238983586740      -1.40490187291477       0.24413551070718
H        -4.24017671432105      -0.64702279025811       0.00548900451235
H        -1.90784292811467       3.04011438610300      -0.56300502032931
H        -0.19263440832582       2.72050753464128      -0.82726147590843
H         1.46447007619628       1.49522878386277       0.15002822422387
H         1.14526100619070       0.48843140179090      -1.26928286745439
H        -1.61091925635726       2.90015074107295       1.92738377764737
H         0.14631152776165       2.61529173011068       1.71169011859785
H        -0.59891630087863       4.13790665801671       1.16923756701523
H         1.82615626305204      -1.55661809277883       0.01702410263558
H         2.13629810063433      -0.55896592609619       1.44868484114798
H         3.55343610776703      -0.25414310436045      -1.26132680296267
H         3.86808311002138       0.73560880840667       0.17047827261943
H         5.57846037433056      -1.08764017981063      -0.04477247625004
H         4.61911297346227      -1.32011988397040       1.43546813913325
H         4.29598760752775      -2.31965812786979      -0.00182633875129
N        -3.64039768026390       4.92109135461847      -2.87743481403944
S        -2.03679633889827       4.82951350972970      -2.76745870269655
S        -4.59879169747917       4.02918719658839      -1.97175234361735
C        -1.63795466944418       6.13834916094543      -4.06283849964755
C        -4.77129181568693       4.96583068371003      -0.32873899171195
O        -1.48584090297628       5.34149335009014      -1.50801144636862
O        -1.45536935353892       3.58817863659870      -3.29609713262586
O        -4.01959647809827       2.74292330270357      -1.53731963995475
O        -5.94155589211902       4.05358524092298      -2.52246781927955
F        -0.28807506971346       6.28500157085250      -4.08222788772199
F        -2.19720504819968       7.32581178519597      -3.75823391984748
F        -2.04708074957089       5.75473475808303      -5.28940706890258
F        -5.89015980813564       4.53542945358613       0.30796008217183
F        -4.86452443082991       6.29529750601896      -0.51911368301731
F        -3.71040181375774       4.71992843183920       0.49185188775712
