26
C4H12F2N2O4S2 optimized with ForceField in AMS.
N        -0.03767785438929      -0.03591394679896      -0.05599557539082
C        -0.95422658084085      -1.15622657716817       0.25178401854097
C         0.58263345450754       0.45086637911593       1.19588001050623
C        -0.79795465602330       1.06400263122148      -0.69022759416218
C         1.01960970021074      -0.50294009378353      -0.98013996878230
H        -0.40654135277614      -2.00061370252932       0.72745626249716
H        -1.75819721716970      -0.83350002993780       0.95080672603168
H        -1.43920982915159      -1.54100260061364      -0.67330797665844
H         1.28564689921868       1.28986505290853       0.99323727866760
H        -0.18989846213761       0.81630729811231       1.90900887324583
H         1.15384166134521      -0.36134149807538       1.69833401105171
H        -0.13234539411544       1.92379410566300      -0.92862380359824
H        -1.27312187066709       0.72599346427166      -1.63844150057663
H        -1.60387122371682       1.43243068792057      -0.01644697500079
H         1.72215068452335       0.32271614637220      -1.23282735533118
H         1.61210901191094      -1.32782912014395      -0.52431033704563
H         0.58053197766810      -0.88146781831263      -1.93043522101807
N         5.25966459144922       0.18029950319538       4.22905867570684
S         6.54999207245793      -0.81634778465732       4.09811392940317
S         3.86671830323150      -0.12327732171633       3.42695796165721
F         7.19163151503185      -0.69181917619344       2.55657244681749
F         3.11012364513268      -1.44982390653169       4.11365859257222
O         7.59076746679021      -0.42572571130153       5.10834842215142
O         6.12472614206681      -2.23814515952310       4.33557251584951
O         4.15995329357826      -0.42297589347455       1.98359155461759
O         2.96402289186480       1.07347489788028       3.52115699484764
