37
C9H13F6N3O4S2 optimized with DFTB in AMS.
N         1.21358344243788      -0.59164724533434      -0.13882299590755
N        -0.86712357949374      -0.51401806967514      -0.68506498720000
C         0.37250926995933      -0.53349282131972      -1.16709544831071
C         2.66382421895823      -0.74274537879832      -0.24776093231789
C        -2.08232006543708      -0.56463513719540      -1.49757429422977
C         0.49637452892146      -0.61106037817026       1.02668397471046
C        -0.81742938448835      -0.56224833768414       0.68224862188028
C         3.09108470965370      -2.12108527778277       0.24333146885218
C        -2.77754027829342      -1.90861744852851      -1.31345199137650
H         0.64640951782791      -0.50029368154701      -2.20688530510160
H         2.92395664462997      -0.61669973118587      -1.30110447074153
H         3.13194794287614       0.05117533033489       0.34230028718716
H        -2.73101019409884       0.26241727603795      -1.19374994110357
H        -1.78113822856927      -0.43085336485650      -2.53899926154596
H         0.96916806141280      -0.66229783590782       1.99152978275020
H        -1.70452267796027      -0.56131118944134       1.29071343011771
H         2.80357431051536      -2.26849349572881       1.28345577528350
H         4.17370742746296      -2.20191230182043       0.15842086152718
H         2.63095629460291      -2.89574013666869      -0.36806968242090
H        -2.10333514538648      -2.71826112487882      -1.59239359668792
H        -3.65661225276054      -1.94115711240419      -1.95497079706625
H        -3.08649765267889      -2.04694326509990      -0.27810940720169
N        -0.33192981671379      -3.95616241137307      -2.18234095901399
S         0.40700595547830      -5.06746961088145      -1.27560529025808
S         0.54109778282629      -3.03095141326445      -3.13787018294968
C        -0.37305047595065      -4.62535180357194       0.35732746931865
C         1.03329947795141      -4.03292709540278      -4.63699605353965
O        -0.09159594498583      -6.37951107496702      -1.57771143345824
O         1.82274057000250      -4.89470534251619      -1.07109907111121
O         1.79379918612575      -2.52890956156027      -2.59480613747245
O        -0.36897678694744      -2.02380601861315      -3.65333269307305
F        -0.02268484113613      -5.47143118902798       1.30761425348900
F        -1.69676029929167      -4.60182280421105       0.26628078677010
F         0.02766140263667      -3.39933426901763       0.71891954308273
F        -0.05175721746132      -4.49257503454148      -5.23569417714742
F         1.80189108768580      -5.04416050608974      -4.28887065848877
F         1.69288136488840      -3.25128497270659      -5.47666253984472
