42
C12H21F3N2O3S optimized with DFTB in AMS.
N        -0.55078312321823       1.25497896765929      -0.55359098981968
N        -1.72813366010588      -0.54006719164350      -0.68937611906472
C         1.29969686774447       2.18871182469336       0.75881525155287
C         1.87274314946129       0.83068564259131       1.18282336829089
C         0.59761911164214       2.15617557798472      -0.60318341617563
C         3.11978445803288       0.43301181192484       0.38587281331056
C         3.59751831376119      -0.96849568835147       0.77909550365173
C        -0.53042822293146      -0.01640254509245      -0.93942466174586
C        -1.78305281529726       1.54986245712471      -0.03637621718131
C        -2.53082396598617       0.41819284930256      -0.12964582650902
C        -2.13443497893628      -1.89622030302235      -1.04785176672190
C         4.84460652646179      -1.36573779615995      -0.00813966083888
C        -2.94431342485249      -1.87069180461564      -2.33940639922189
H         2.10428347579772       2.92642139996684       0.69576366157169
H         0.58388701075417       2.53261848265842       1.51253636786933
H         1.10034599015271       0.06072249840815       1.07392122499845
H         2.12690795488867       0.88706770000945       2.24650411770856
H         0.22953802082529       3.15155389407921      -0.86355319678575
H         1.26159128404377       1.79636114599291      -1.39250223029327
H         3.91487452130824       1.16234509840376       0.57402828488245
H         2.89991685310623       0.44605000454808      -0.68405489358982
H         2.79752154368180      -1.69011580088142       0.57987696085798
H         3.81196314999212      -0.99510805921473       1.85405675136020
H         0.30713488525201      -0.51348690306474      -1.40324569706796
H        -2.02776036343335       2.52687572265592       0.34216584541928
H        -3.54841786523535       0.21843828161916       0.15722124858710
H        -1.22476352643144      -2.48768472121180      -1.17490881396123
H        -2.72277036067850      -2.30470387686174      -0.22174126185295
H         5.65831500551025      -0.66497284812523       0.18486701825021
H         4.63127027372732      -1.36791029455489      -1.07683784985645
H         5.16752174733132      -2.36476236213370       0.28581762061441
H        -3.83694756081656      -1.25739007942421      -2.22056131004907
H        -3.24143845587200      -2.88728809086003      -2.59166593846700
H        -2.34069941541573      -1.46827686242976      -3.15113276384994
S         2.28618241021716      -0.92426794865004      -3.51313324580856
O         3.60875101369638      -1.36748168676695      -3.15774819454995
O         2.01372512738044      -0.73379107243763      -4.91079761454039
O         1.74460678333592       0.12085075371041      -2.63811197553055
C         1.19223979625339      -2.36100859212381      -3.03435495125801
F         1.19058115306621      -2.52308192277943      -1.69466616735359
F         1.52575710308832      -3.51551650712219      -3.58089872731993
F        -0.08855474990244      -2.10163411250541      -3.36265085691237
