41
C11H24BF4N optimized with ADF in AMS.
N         2.35534830330774      -0.00796698733513      -0.11656551059018
C         2.47137718635424      -1.38017865296554       0.53906110442658
C         3.45554918130446       0.01271438168391      -1.21008273823590
C         1.00383887284707       0.19219173459077      -0.75394336464072
C         3.92367796044447      -1.77394272838123       0.34128941474037
C         4.20077868620970      -1.31498879422070      -1.09362000358927
C         2.63781509275033       1.06440853713142       0.89740119864032
C        -0.17516112895813       0.13683721232487       0.20161681494324
C        -1.49556288983986       0.20941985419214      -0.56783078038380
C        -2.70966206308058       0.17067518744716       0.35664637198518
C        -4.03704367606009       0.24041192745719      -0.39495180722932
C        -5.24358826184732       0.19691232758343       0.53905184291202
H         1.79820972402117      -2.05513533194733      -0.01330347754266
H         2.14282428220760      -1.30216758665374       1.58383722298141
H         4.10738705856626       0.87151197082008      -0.99735799057411
H         2.95763454442852       0.15702208038615      -2.17831964177275
H         0.91389899649874      -0.59225452153301      -1.52373457472674
H         1.04663373202439       1.16814765948733      -1.26426053209338
H         4.06420032055551      -2.85543748827204       0.48355849392639
H         4.58091528800280      -1.22955413516860       1.03752594766366
H         5.27221949812758      -1.14603875075441      -1.27302772253817
H         3.81250620924291      -2.05105264024688      -1.81812992038641
H         1.87666254079893       1.01543396138212       1.68510013643148
H         3.65035409887003       0.90518021612077       1.29563611355382
H         2.62830488013341       2.03475903851281       0.38563338647942
H        -0.15148211244707      -0.79650205319186       0.79001057462536
H        -0.13094576545198       0.97629668168542       0.91480624650301
H        -1.55209998828492      -0.63188771589463      -1.28357141536436
H        -1.52115641291913       1.13611004585817      -1.17028124896497
H        -2.65017449271338       1.01167360759810       1.07289316175045
H        -2.67917243966031      -0.75538100671252       0.96099447317704
H        -4.06302975848698       1.16686740892067      -0.99701646057209
H        -4.08993902245332      -0.59856693103774      -1.11312138155363
H        -5.22371123794375       1.04234788697010       1.24580327836376
H        -6.18963628489932       0.24695767450695      -0.01974015532463
H        -5.24934316623056      -0.73275018180024       1.13057140250116
B         6.16847876222160       1.57772515811397       0.33726577392999
F         7.27498235504534       2.26555381140127       0.82535623712823
F         6.48426382217828       0.79744473944187      -0.81270047367219
F         5.10610395843209       2.48245857658373      -0.01680977122576
F         5.64714437930354       0.68166111971519       1.35519578641817
