41
C11H9F18N2P optimized with ADF in AMS.
N         2.61598110955233       0.10100380587750       1.26308401487824
N         1.37557120549494       0.65986004682263      -0.42645366616285
C         2.38945901611823      -0.12053659181996      -0.03725628324931
C         1.73003603785248       1.05698995883303       1.71205132179493
C         0.95232157605484       1.41202656193206       0.64929741825626
C         3.64649671906654      -0.56005980764760       2.06211606864216
C         0.88230055104496       0.78931132784027      -1.79533078252400
H         2.96432357608277      -0.78210676688379      -0.67176747654166
H         1.73938097358516       1.41087808550267       2.73532597078738
H         0.16075004731893       2.14529821518344       0.55863815164319
H         3.22321132366332      -1.45366825309015       2.54005731166118
H         4.48571363722880      -0.81941827969911       1.40862443521998
H         4.00222009918721       0.14705047034036       2.81983897389343
H        -0.20873474074304       0.67317006401708      -1.79419805871002
H         1.17758312017131       1.77266357885612      -2.18100174250268
H         1.34388982232000       0.01092856784514      -2.41110632533843
P         5.93175978004048       1.69180341529351      -1.33243247058239
F         6.59955190879580       2.49064373263028      -0.04223555747539
F         6.79900953550979       2.55343013144999      -2.44153914285183
F         4.97725385874650       0.79094806635024      -0.25263146318175
C         7.45758358220807       0.46668663636565      -1.12282927255680
C         4.52446745191718       3.17857899976125      -1.34612847522335
C         5.01093955060979       0.63932001056143      -2.82080577677191
C         7.60718419323842      -0.37620142878159       0.18433119934309
C         4.00055747353140       3.87373860063484      -2.68603566482582
C         4.80683692718013      -0.93270362560420      -2.86347355005776
F         8.61632407863183       1.19951227386405      -1.19688617735098
F         7.50958952663117      -0.45546416664297      -2.15340732377368
F         5.04451254628648       4.21721129894079      -0.62011528709895
F         3.37903440363598       2.78745812267133      -0.65524734656739
F         5.51993095236268       0.94316392707262      -4.05256842757641
F         3.69396267336170       1.11395431040103      -2.80144768935216
F         8.82156046684539      -0.99009988629062       0.18853238450807
F         6.66594720681655      -1.36055300541097       0.26743603748298
F         7.51793124015345       0.37303149755621       1.30462482040948
F         4.04296133833147       5.22563785230031      -2.56394294298191
F         4.71505034039352       3.54297060139960      -3.77523641161141
F         2.69116597944268       3.55421646514417      -2.93299147356032
F         5.72958949673677      -1.55661287558229      -3.60853793734007
F         3.58305488120946      -1.22611498230921      -3.42148303800001
F         4.79254556308457      -1.50508489198511      -1.62609707605114
