55
C15H20F18NP optimized with DFTB in AMS.
N        -0.12456047159927       0.71816812120216       1.18156947523363
C        -0.39289889741532       1.74111887657551       0.11341320608900
C        -0.26027762604298      -0.65705207723186       0.60501638142818
C         1.29846499244023       0.94280765235771       1.63801767064584
C        -1.73941221811394       1.55498819167547      -0.57133531926869
C        -1.60602861019616      -0.88722780704626      -0.07434544683518
C        -1.85786252944336       0.15293661468533      -1.16422035635888
C        -1.05407893797875       0.91456107672288       2.32679417048617
C         1.79531571684043      -0.00635144062548       2.72526317304830
C         3.25792278588208       0.31561121383615       3.03505054686867
H         0.41295290320348       1.65300611799578      -0.61997699083588
H        -0.33569797156374       2.72138440797486       0.58534254326431
H        -0.12480918188293      -1.37294672715965       1.41758091891480
H         0.55120088900201      -0.78106399803503      -0.11756863714019
H         1.34871207228850       1.97241285969712       1.99461912584514
H         1.92843568370659       0.85124514572329       0.74906142617342
H        -1.80629908649287       2.30328318384067      -1.36489549267718
H        -2.55870094149417       1.74081122648403       0.12780414112547
H        -2.41367782159341      -0.86421109821576       0.66210775826851
H        -1.58413948678535      -1.88896848646011      -0.51144681014837
H        -2.85504699220612       0.00985040510423      -1.58628269215955
H        -1.12517416569951       0.02817880818988      -1.96792916226577
H        -0.85352769987592       0.15997465596531       3.08311060459841
H        -0.89439840170218       1.90743648494422       2.74032718499618
H        -2.08167431163682       0.82184092862236       1.98680238859805
H         1.20555392091446       0.11487120135583       3.63583599051683
H         1.71699926535638      -1.04756995180791       2.39875115967390
H         3.87672434681265       0.18557695362062       2.14651391774340
H         3.35465980604972       1.34210662920967       3.38433449952170
H         3.61845787328013      -0.35348446294426       3.81525436932056
P         1.14647499331828       4.53654392707362       3.90746871830661
F        -0.07069692961969       3.34479657271424       3.86871129774649
F         0.06821089244287       5.70605240969204       4.39494207928448
F         2.23980595898821       3.32484637910525       3.39267347661430
C         1.32089792184784       3.95795763434821       5.77508734656458
C         0.58924978904149       4.87486139816859       2.00359513058028
C         2.65242093337036       5.83527573069552       3.75179722893184
C         1.86862298319338       2.53316057799185       6.06246295444271
C         0.48976334745975       6.28825371603006       1.35351793130327
C         3.88104537017528       5.94325764668923       4.69868470923095
F         0.09908208287154       3.99401414307709       6.33363871013848
F         2.09069932421015       4.81847722227336       6.46420841380410
F        -0.67392015969557       4.39363043626072       1.86203611996091
F         1.34177651548717       4.13136752213314       1.15335213001436
F         2.13568323981748       7.07299492214877       3.65481641826401
F         3.17787591629098       5.53122953878472       2.54202264158890
F         1.77288365291604       2.24886925962287       7.36026345750217
F         3.14351208303011       2.40024691258706       5.71010223918632
F         1.16710258670489       1.60287782622020       5.39889258153207
F        -0.21711522505018       6.16872883637037       0.21744060757096
F        -0.15233766453211       7.14581765732541       2.13486955167807
F         1.66495684063847       6.80299982798708       1.02541518568146
F         3.61674408613930       6.68526643720005       5.76591781261245
F         4.89955529527476       6.51233833082953       4.05244400997139
F         4.28419170812540       4.73753677111423       5.09912546951796
