42
C12H23BF4N2 optimized with ADF in AMS.
N         1.61933508987831       1.36485536380123      -0.54701508149466
N        -0.53790630803521       1.11597606351218      -0.60307944297837
C         3.05276531188365       1.12470506531137      -0.28017836810622
C         3.46556994897541      -0.31725620445448      -0.51936030792419
C        -1.88427576289657       0.55400459503778      -0.41648346684656
C         3.27764772468271      -0.81512280489365      -1.95042762151345
C        -2.30099115281468       0.53599056395428       1.05343370054625
C         0.62406338608578       0.48975034614458      -0.36832049370462
C         1.07896219985997       2.59016564426064      -0.86585837161076
C        -0.27555905075522       2.43672151424933      -0.89851893769486
C         3.69041936796416      -2.27748007578326      -2.11281265329080
C        -1.77055565892508      -0.67275467042850       1.82216725954010
C         3.46990954559342      -2.80547877204022      -3.52795836810800
C        -2.08405748570199      -0.58006724356400       3.31286441688114
H         3.21992694162276       1.41146056506789       0.77219466168282
H         3.59723089495730       1.80747111628101      -0.95157292347638
H         4.53251501527127      -0.37896615636166      -0.24237620268464
H         2.94189648735522      -0.96169778765856       0.20639103795857
H        -2.55478935705483       1.17672181911113      -1.02671075727668
H        -1.88644487881347      -0.45901276239605      -0.84981165691874
H         3.86821076726663      -0.18635727169898      -2.64350642357679
H         2.22258090914779      -0.70389453285277      -2.26304071417676
H        -3.40505336256912       0.54669602457084       1.09016966128397
H        -1.94173012802446       1.46271732114560       1.53269801249570
H         0.73753513029491      -0.52502902417042      -0.01753945628387
H         1.70050636928052       3.46253888667402      -1.02266711377071
H        -1.06916456244115       3.14483382978074      -1.09951153584912
H         3.12191650532759      -2.89296916912126      -1.39194170378475
H         4.75496294222561      -2.38490753357092      -1.83559159642067
H        -2.20804165732273      -1.59254495995370       1.38716325926726
H        -0.67618391012169      -0.73765707679827       1.71685495054241
H         4.04843658402304      -2.22165985225300      -4.26241954937961
H         2.40641413983952      -2.73929533198275      -3.81098874142905
H         3.77729629473603      -3.85819004620146      -3.61754820372066
H        -1.53000488520012       0.25968222809352       3.75893888656475
H        -1.77038633776905      -1.49475258050452       3.83655507922665
H        -3.16289363233231      -0.43418538269884       3.48796062585481
B         1.46494503778955       0.90867950457980       2.84777862707700
F         1.56807266029747      -0.35085056493858       2.13164695492430
F         1.07241492270207       0.67198556245820       4.16829198634696
F         0.48963429175924       1.71338864033104       2.16969599388211
F         2.72943808185774       1.55874019996066       2.77887773234609
