38
C12H19F3N2O2 optimized with ForceField in AMS.
N         0.36756856824279      -1.61307015509711       0.32111901903002
N        -1.75613748208697      -0.95917371078852       0.27053714637829
C         1.76776319489844      -1.72011351269833       0.72432658241954
C         2.64358320096489      -0.74371359654257      -0.07231809179863
C        -2.99301248479142      -0.26236781687066       0.61665795568905
C        -0.61478402221050      -0.97430315769771       0.98547691397782
C         2.25071898957369       0.71766318311169       0.19013827777598
C        -0.17159086684746      -2.02291931088041      -0.84489905937887
C        -1.49122655587286      -1.61965477719158      -0.87509678410146
C        -3.20927794106026       0.95923265743671      -0.28633233627264
C         3.20373815503232       1.68551254385440      -0.50251423266400
C        -2.06875374488420       1.97048023342282      -0.17008279708678
H         1.86868339666735      -1.50820024475248       1.81163457612011
H         2.11984762876278      -2.76003691106167       0.55220825184241
H         2.55571680360590      -0.96717260429717      -1.15796417605634
H         3.70276292290155      -0.90030863408736       0.22378711185537
H        -2.96185520331055       0.06540565449513       1.67922949791703
H        -3.84988113533500      -0.96086093489816       0.50458521057006
H        -0.48444502213506      -0.47755142376922       1.93991660740746
H         1.22469194487319       0.90397081990133      -0.19075548641218
H         2.26201832764112       0.92244136449684       1.28255548567726
H         0.36359899306049      -2.54791323095836      -1.62576196507607
H        -2.19534540262313      -1.76733022097739      -1.68395656624164
H        -3.30551490122207       0.63393607178525      -1.34457835867283
H        -4.15951389379578       1.45580861407239       0.00524021482600
H         3.20450766270590       1.50897123364542      -1.59897605487128
H         4.23406594132777       1.56120551190535      -0.10739980443671
H         2.87375019135763       2.72867078955928      -0.31132402025773
H        -1.12884247570237       1.54155108171348      -0.57541222208651
H        -1.91157463100099       2.26110881354923       0.89022387371468
H        -2.31562167717009       2.88003371252102      -0.75623753415594
C         7.33631425977929      -2.64982467652211       0.31831054097740
O         8.39373865471289      -3.21935962898327       0.53644439445680
O         6.61374594069728      -3.04480078195013      -0.58224051501635
C         6.92014275781964      -1.47147958268364       1.14804880106637
F         6.75089149598141      -0.36852009358281       0.33145243301436
F         7.88128462553719      -1.18351646576528       2.10149647928118
F         5.72621673760522      -1.75457278771441       1.78487682208875
