32
C10H15F3N2O2 optimized with ForceField in AMS.
H         0.29579348035352      -0.56695383984084      -4.85769291332488
H        -1.32252745305159      -0.80254831489679      -4.09537760282459
H        -0.10513276891499      -2.13676296289855      -4.05081186895711
C        -0.23987397397406      -1.03542692645669      -4.00808455063507
H         2.49759484163279      -0.03808838868285      -0.40496918206065
H         2.34583679275290      -1.19477799607369      -2.81075104939395
H        -1.42329330122665       0.43053799145937      -1.86883121683913
N         0.29314105633594      -0.52433614110136      -2.75228639014410
C        -0.37617132321940       0.16009759598757      -1.80487615213603
N         0.41953712793023       0.44153685683274      -0.75482743321140
C         1.62811036638793      -0.08013086937100      -1.04849102272797
C         1.54995625793181      -0.67707503176617      -2.29079884276100
C         0.03483743872272       1.13009979129731       0.47432336399863
H         0.82415670968736       1.86295529852064       0.75080974486240
H        -0.91127078330199       1.69097795663296       0.30708962016691
C        -0.16774923741358       0.11662550052030       1.60371013042384
H         0.78692035118970      -0.42299094800598       1.78933365206842
H        -0.93637484117873      -0.62409258156592       1.29001818927699
C        -0.62266846516506       0.80951476129522       2.89262757549889
H         0.15741931914335       1.52838805601367       3.22598723204968
H        -1.56404070060174       1.37132750534574       2.70546016609812
C        -0.86974313689922      -0.20564517903218       4.00468319148061
H         0.06123268279482      -0.76935957606417       4.22712161264065
H        -1.66786504011615      -0.91840155012662       3.70563956960705
H        -1.19393816073590       0.32318687351908       4.92555656415344
C         1.87922228941704       0.46233735035966      -7.11034459523946
O         1.45771405523979      -0.62845455324679      -7.46142598854040
O         1.42386398382975       1.47519133781375      -7.61695616998522
C         2.94857203283578       0.56556873008991      -6.06213760251581
F         4.05277841965359       1.20807571401899      -6.59074871958913
F         3.32635728792864      -0.69216196792407      -5.62454898619718
F         2.47361733323140       1.29170229804675      -4.98561719844259
