41
C11H21F6N2P optimized with DFTB in AMS.
N        -0.39097857500677      -2.03996949284450       0.33492600156366
N         1.58764645214429      -1.84643129825133       1.16446720865386
C        -1.76755348048776      -1.74191596102147      -0.04619981623819
C         2.75766245319400      -1.29569206469533       1.84138537233393
C        -1.80342040476634      -0.79164861352507      -1.25020693516873
C         3.46242140423745      -0.26104667706842       0.95392109398318
C         0.36647100872166      -1.31107736861469       1.15505077585363
C         0.37002794801140      -3.03250009324126      -0.21594251786223
C         1.61736914494177      -2.91107688196600       0.30788480161363
C        -1.48599557406823       0.65426303933085      -0.86100383469678
C         2.73173851596849       1.08364030053006       0.93522698921474
C        -1.51789131209522       1.56761212024683      -2.08428194843233
C         3.44664067951728       2.08136307705043       0.02694673568862
H        -2.24718633984625      -2.69147244650604      -0.29614123982400
H        -2.27401977507156      -1.30314373118642       0.81872264467881
H         2.42891337825450      -0.85050655554853       2.78520612361691
H         3.42897033400352      -2.13074687314697       2.05592343286029
H        -2.80751709373153      -0.84574982966270      -1.68108339645361
H        -1.08998084500253      -1.13917804687244      -2.00081622201313
H         3.53858947191130      -0.65265608833079      -0.06267442478463
H         4.47469598897495      -0.12665296302720       1.34668773543100
H         0.03851908364072      -0.47162331732738       1.74167066685941
H        -0.02271653120140      -3.71666522506224      -0.94655375436885
H         2.51618993435477      -3.47082625193370       0.12136687140096
H        -2.21099880103622       1.00112434186027      -0.11482866473895
H        -0.49026405923183       0.69720098753467      -0.41008406825990
H         1.71170385104032       0.93455340543652       0.56842716602590
H         2.67028372481314       1.48210615924802       1.95500017399049
H        -2.50463638920063       1.55261864838804      -2.54934396079896
H        -0.78006840246439       1.24030706641761      -2.81568564487203
H        -1.28635464837920       2.59062471841722      -1.78777552576077
H         3.48681919081632       1.69859025373853      -0.99197533215337
H         4.46490063616681       2.25744612562295       0.37654339059848
H         2.90896857487450       3.02951025355824       0.02363052989792
P         1.98455127099787      -1.03160092451390      -2.73462736177724
F         0.79545275799094      -2.20177804703282      -2.74613634891169
F         0.99919960452284      -0.02311777725716      -3.56810592331308
F         1.32540720713773      -0.45056568898376      -1.29833807535395
F         3.14525031770267       0.12266847195429      -2.63983702485352
F         2.94092125945690      -2.05529190515422      -1.82872588521821
F         2.61503743859367      -1.62798841216016      -4.10548434631129
