38
C10H22BF4N optimized with ForceField in AMS.
N        -0.51253954339644       0.00824868903705      -0.00022438195773
C        -1.43469224466896      -0.55929114300580      -1.03209606720394
C        -1.41079832302989       0.61332296298779       1.03103663087818
C        -2.83981103029458      -0.07074553765657      -0.73662260254008
C        -2.83126612550704       0.16547907615004       0.74687213620220
C         0.34318488558840       1.06880946479900      -0.62652831505828
C         0.29814125521603      -1.08704271433313       0.62643169824905
C         1.36163594733927       1.72361440905108       0.33684948639441
C         1.29539497130161      -1.77621880944262      -0.33483673102197
C         2.07739514124360       2.89002703099009      -0.33820817655571
C         1.95912135676569      -2.97671297969162       0.33291335522827
H        -1.15307142140661      -0.28571675616488      -2.07466646472823
H        -1.46814636418078      -1.67255740706240      -1.00217591154365
H        -1.13159588243425       0.34149605072513       2.07466223489360
H        -1.41076585415519       1.72680028441806       0.98952158238454
H        -3.02738197656281       0.88655083615012      -1.27192767531915
H        -3.60952087913775      -0.81902130805157      -1.02631427108861
H        -3.04217824981520      -0.78592976892096       1.28391233311008
H        -3.57673877427025       0.93588117598984       1.04202007276656
H         0.90055528177982       0.65886535056982      -1.49763010276645
H        -0.30770928452938       1.86992253576097      -1.04902424255755
H         0.86783906099814      -0.70163304358570       1.50069947288644
H        -0.38507014876195      -1.86361732649155       1.04356279407082
H         0.85735181153608       2.10301206212835       1.24970814805062
H         2.13368277945332       0.98937404740445       0.64624483309408
H         2.09895829043013      -1.07112348822386      -0.62722041284081
H         0.78466469606861      -2.12441354808238      -1.25645686923497
H         2.63652048176380       2.53338486244960      -1.22929623573260
H         1.34548841224485       3.66498661144543      -0.65033029652342
H         2.79688325612245       3.34785812495134       0.37284535247552
H         2.52669561795136      -2.65102689848941       1.23041150704225
H         1.19507504924836      -3.72475060357348       0.63311162801434
H         2.66475994142564      -3.45519270340490      -0.37860680323828
B         4.57333102125771      -0.69857954853432      -3.49512272219665
F         4.94301708463795      -2.01719341929241      -3.11813820013099
F         3.65621000692945      -0.17362506992810      -2.54730149007411
F         3.96415849529383      -0.72600629175700      -4.77774299870260
F         5.73037716175499       0.12381671228451      -3.53804994472518
