57
C15H28F6N2O4S2 optimized with ForceField in AMS.
N        -0.69288207906175       0.53813190474234      -0.19775649840127
C        -1.66195860178537       0.28264606340465      -1.31114544449737
C        -1.25540686469043       1.61265648777545       0.68355106150512
C         0.56551928741084       1.05030045684714      -0.84155704344969
C        -0.43597778078142      -0.69737675354943       0.62038608076500
C        -3.07854504993619      -0.08587193316988      -0.84195026781887
C        -2.67564439625953       1.31057674880156       1.20825540596543
C        -3.63876560263321       1.00715832686558       0.06301174885530
C         1.76487628031688       1.29234766257271       0.10762016704669
C         0.22956809602357      -1.87481416617839      -0.13065187528356
C         2.96476079537941       1.83706018148203      -0.67899346509279
C         0.43811290321455      -3.06236113413965       0.81763049884593
C         4.17533172259061       2.04893686204266       0.22531959471354
C         1.10010866864581      -4.23453620223770       0.10009852827433
H        -1.29442207496868      -0.50284257791256      -2.00371641393055
H        -1.76268999125679       1.20020442977906      -1.93358410845146
H        -1.30365543049129       2.58106230454917       0.13365519245346
H        -0.60745279672212       1.78049963022572       1.57033467944407
H         0.35673540265545       2.01260060317671      -1.36491191568315
H         0.89754847674421       0.35546835580979      -1.64538520625479
H        -1.37668667753303      -1.08778173859271       1.05300207174190
H         0.18866133070747      -0.44512646082818       1.50523368566806
H        -3.09097161312281      -1.06806870234343      -0.32663648215492
H        -3.73622315205773      -0.18435109650869      -1.73272001335157
H        -3.05022313870893       2.19655159215497       1.76447022154845
H        -2.66336875144995       0.46784954948707       1.93018888026323
H        -3.80571532662890       1.93126758573074      -0.53333419502820
H        -4.61876550371182       0.68273663131166       0.47466655946013
H         2.07658721784447       0.34551765107941       0.59391945633221
H         1.49822266448439       2.02764391328047       0.89384484867288
H         1.21761097984652      -1.57685006043697      -0.53638989304678
H        -0.41409311129837      -2.21372822868028      -0.96726039786331
H         2.69482442208944       2.80705352342934      -1.15076668249797
H         3.24216649436256       1.12140929998498      -1.48379190560783
H        -0.54301512159268      -3.39708524614775       1.22041699694497
H         1.08067344888193      -2.75420108981215       1.67123074718649
H         4.48590339443382       1.08711633960440       0.68618550251972
H         3.93612143852421       2.78075587429202       1.02577377513268
H         5.02176902519600       2.44322683043210      -0.37560922943605
H         2.09735646668347      -3.93548586393338      -0.28699357250675
H         0.46531659783521      -4.57754712301070      -0.74448452519866
H         1.23233476176597      -5.07739559945776       0.81051490198223
N        -3.24273335409737       2.13831629047300      -8.13484661411859
S        -4.77260614947432       1.91448346809864      -8.67733107660899
S        -2.90319034547951       2.59574839917252      -6.59842171203410
C        -5.36158701665626       3.42978048980499      -9.40350358812445
C        -2.45605721269766       1.15893949772908      -5.64976346941314
O        -4.76878821406488       0.84142365445105      -9.72870049146713
O        -5.68295546722577       1.51118708458375      -7.55025790468135
O        -4.09005976849381       3.26589173918561      -5.96281805075066
O        -1.73896197138860       3.54509893955749      -6.61355048244540
F        -6.64117750854646       3.24203060475381      -9.89030044480411
F        -4.52648433416837       3.79885371942127     -10.44088762397410
F        -5.37651685947284       4.43022000475283      -8.45048233123535
F        -2.18224369597413       1.53877092610272      -4.35236023989399
F        -1.33404998194910       0.56965154731281      -6.20057099694795
F        -3.49899025195670       0.25242907927832      -5.65193460826695
