37
C11H24ClN optimized with ForceField in AMS.
N         2.00901086004220       0.44000190595870       0.07844656461385
C         2.26236492139709      -0.85801267639526       0.76328574094022
C         3.10582781957255       0.58432731936212      -0.92742999046388
C         0.68954670025962       0.44154571885080      -0.62625224599523
C         3.68659050982319      -1.27257193506408       0.45244686302367
C         3.93215186542367      -0.69087821348790      -0.91333194787440
C         2.08569960649383       1.55934316617936       1.05278606434418
C        -0.54094812815416       0.25769990219560       0.29417835733812
C        -1.81452553732546       0.09574112996866      -0.54549225962404
C        -3.05609593806362      -0.06656625039016       0.33775501750271
C        -4.31938757016446      -0.19342645204137      -0.52199292959180
C        -5.56329340564003      -0.36791172747543       0.34335247316074
H         1.59744682705509      -1.66423808048167       0.37649868580276
H         2.10712088034473      -0.80834253805439       1.86534400128146
H         3.78770536588388       1.43599086832918      -0.69624717984102
H         2.73481909471491       0.77056104951724      -1.96192511271278
H         0.67866891424846      -0.36976080853828      -1.39141659100477
H         0.56078286980826       1.39943965502628      -1.18147817722336
H         3.80601220597631      -2.37814883077868       0.45684243492313
H         4.38422830972455      -0.81570761230790       1.18893251665493
H         5.01189366045038      -0.48934462798804      -1.08622314067450
H         3.55488697955413      -1.39118133750989      -1.69176361040426
H         1.36074112543012       1.43108853338289       1.88419036764688
H         3.09543580309423       1.61167399212306       1.52014684982748
H         1.88345083093674       2.53354204700241       0.55450608815760
H        -0.42075244093598      -0.63811907417510       0.93915163510683
H        -0.66427034476159       1.14941901942286       0.94395520139443
H        -1.71351209114834      -0.80227873203318      -1.19305663815352
H        -1.93969275401858       0.99043550120171      -1.19534459470785
H        -3.15334690292223       0.81758673434733       1.00614875108480
H        -2.94374785565713      -0.97796983573928       0.96633532002763
H        -4.44046906164087       0.71950837218008      -1.14582616786405
H        -4.22671491759530      -1.07143591293771      -1.19855061381500
H        -5.69063898007815       0.50642161930341       1.01690185650766
H        -6.45989518919817      -0.44888334001054      -0.30688804784085
H        -5.48175205007179      -1.29338751954909       0.95260023024335
Cl       -0.82847171105807      -1.58703805299377      -4.02606705509112
