44
C14H26N2O2 optimized with DFTB in AMS.
N         0.56845140710307       2.24651721005961       0.95160645567285
N        -0.65751657439921       1.56080500829446      -0.69724146819302
C         1.69453933940442       2.75483492442484       1.72082583495865
C         2.84081444615452       1.73983905976399       1.81384861039134
C        -1.09375325103715       1.25213074847657      -2.05563452479768
C         2.38017902060702       0.38241311308585       2.34804498356774
C        -1.57490425470975      -0.19386154613133      -2.19015633279900
C         0.55292358701492       2.07315831527739      -0.38940917259166
C        -0.54762626692597       1.63417219701042       1.49782427624948
C        -1.31522162889184       1.21602491943794       0.47040891750758
C         3.54319640249990      -0.61328237189230       2.38382863572162
C        -0.47352794160849      -1.20844886494410      -1.87083090734306
C         3.08562607373291      -1.98031483640110       2.88931215981143
C        -1.00699617532250      -2.63842906324220      -1.91317876934545
H         1.32172262222368       3.00731798708481       2.71812954043458
H         2.05291484818330       3.66990704819785       1.23822386426886
H         3.27697324181972       1.60550424296231       0.82153769652615
H         3.60591590131344       2.16564973553924       2.47074618378893
H        -1.90551299521084       1.93856344156218      -2.32337442175858
H        -0.23896712583128       1.43682645258359      -2.71293056028361
H         1.59879219498093      -0.01077829656953       1.69149254143323
H         1.95716042166975       0.49993242820890       3.35243076981924
H        -1.91486755268665      -0.33100284167307      -3.22170963584548
H        -2.43668046804657      -0.35978419241057      -1.53506225702367
H         1.11557095583294       2.68550081386011      -1.07748543574923
H        -0.70179734005822       1.58606573768602       2.56129438328083
H        -2.27520464408978       0.73161359992891       0.46603344859304
H         4.33853216595344      -0.23012634696172       3.03263061030421
H         3.95365741649756      -0.71979109843574       1.37446329918957
H         0.33636857976382      -1.10037443541221      -2.59775562071348
H        -0.06113904813841      -1.00064592653044      -0.87920531265580
H         2.30988332006503      -2.38613715143121       2.23842010344567
H         2.68318091368537      -1.90102794251604       3.90057269613129
H         3.92559453504922      -2.67545374492675       2.90343799311713
H        -1.80056399968269      -2.77485347927643      -1.17636392495720
H        -0.20343313894932      -3.34082647253342      -1.69088353781741
H        -1.40789485882944      -2.87105522665712      -2.90111045864877
C         3.45777540684917      -0.37524077443006      -2.14913902059525
C         2.32888581886699       0.63055584243635      -1.88094683689231
O         1.84583497709502       0.57126175968325      -0.70227554051941
O         1.97304021399344       1.39950451025134      -2.76919879570476
H         4.27399657661620      -0.18634369007794      -1.45380133470149
H         3.08571337792553      -1.38455445125770      -1.98129456426300
H         3.80958688791672      -0.27505100010492      -3.17326049421410
