34
C10H21NO2 optimized with DFTB in AMS.
N         0.50426263533888       0.28856332393426       0.05398571898150
C        -0.38090451261912       1.29656142256333      -0.62829314299594
C         0.06142696770247      -1.09784541741413      -0.30718641389200
C        -1.86189549424848       1.08098261963215      -0.35287551228232
C        -1.41088743882753      -1.34338874165278      -0.00341902124483
C         1.89414003708941       0.53468852463274      -0.47575542174758
C        -2.27819555764001      -0.33298577734890      -0.74987982072405
C         0.48352661129453       0.49060439213883       1.52564443359008
C         2.94879155301783      -0.44987841041449       0.00042525990585
H        -0.17652692066160       1.19767892036904      -1.70205053433950
H        -0.05979676332103       2.28570892493835      -0.29261982881075
H         0.68842997501125      -1.80330697649212       0.24092832855273
H         0.22222511792188      -1.19881355439754      -1.38952668212022
H        -2.40886942733355       1.81139634321272      -0.95483505086039
H        -2.10169763100714       1.27125329769070       0.69909314307999
H        -1.60616680745503      -1.30173247871412       1.07368218452885
H        -1.64411972101400      -2.35478847401015      -0.34623103535896
H         1.81323788231589       0.50603536345170      -1.57245946968520
H         2.16497161483508       1.55005453737085      -0.17416921728461
H        -3.33255975371963      -0.49455566798638      -0.51342855705675
H        -2.12933484651318      -0.46489403229378      -1.82605216302482
H        -0.53806116222855       0.42611299698946       1.89082638840225
H         1.08560395453585      -0.27871481169036       2.00428892357855
H         0.88992451733982       1.47509249143419       1.75161912778837
H         3.90465171582555      -0.12032988387634      -0.40665098440104
H         3.03384429466778      -0.47883007318303       1.08666296244234
H         2.75585799759582      -1.45560549233279      -0.36885106290199
C         0.40298846394565      -0.07525347280436      -5.36045428710819
C         0.33847629666001       0.04067541247126      -3.82145524709139
O         1.02980139673135       0.94668259547449      -3.30155330646092
O        -0.39935263727108      -0.76489548959192      -3.21666967176340
H        -0.17413300927600       0.74253284846482      -5.79145620633911
H         1.43618058783270       0.01651395209958      -5.69112698534685
H        -0.01545058932581      -1.02472292196528      -5.68837696730968
