43
C11H17F6N3O4S2 optimized with ADF in AMS.
N        -0.27834469531222      -1.49687368193312      -0.04257830622680
N        -2.19572574080368      -0.48409693935260      -0.09103468109242
C         0.98918940723806      -2.03747729964890       0.46697643882999
C         2.17586336564621      -1.18467153452970       0.02734989411911
C         2.13388772987270       0.24652978015809       0.55904925657376
C        -1.13327803188137      -0.75909278727739       0.67524202441797
C        -0.79801621711661      -1.68093534051271      -1.30550682953298
C        -2.00471486325656      -1.04449483992592      -1.33697374544593
C        -3.37682550571163       0.26521520749806       0.35882618907693
C         3.34017829890280       1.06891760534993       0.11060970868606
C        -3.31745925887070       1.71654017210618      -0.08771833251248
H         0.88420104222215      -2.08081160404569       1.56141678954382
H         1.06092842568881      -3.07291125915705       0.10355698718307
H         2.23496600208374      -1.17254885843191      -1.07668711137064
H         3.09151179355900      -1.68769767635973       0.38443985825612
H         1.20907271177304       0.74247245868500       0.21387691872806
H         2.08567332978068       0.21968426472034       1.66270406940314
H        -1.00901316924874      -0.51705223394369       1.72635620179737
H        -0.29539404380429      -2.28449897266870      -2.05041998789948
H        -4.25458051602381      -0.25843021613143      -0.04575508146441
H        -3.41514409507882       0.15276471691060       1.45204530613776
H        -2.75895141639435      -0.99271607703571      -2.11218450867857
H         3.38028875612394       1.14367114043656      -0.98805090880278
H         4.28115459152131       0.60793086662400       0.44999098285524
H         3.29971683347342       2.09011522579551       0.51683088847968
H        -2.43256062536116       2.21996247188151       0.32906060121760
H        -4.21349216813672       2.24814869703460       0.26274503343970
H        -3.27850652512271       1.79549517995525      -1.18463386102149
N        -1.70763143565742      -3.66758057037437       2.04218094144096
S        -2.02315606057394      -2.56859888802144       3.17327987788593
S        -2.80363932211172      -4.79574207969752       1.63662504696007
C        -2.26134633053127      -3.47936427259164       4.84411179189669
C        -3.59405112868445      -4.12821654495813       0.05636006879475
O        -0.76428441762753      -1.82733796405611       3.37067292997162
O        -3.24310235991569      -1.77492127204676       2.99294739371650
O        -3.91847204821643      -4.91988680041533       2.56576950683860
O        -2.08663000608086      -5.96143837666315       1.14559955510582
F        -1.69034851630618      -2.72878717112535       5.81719373688073
F        -1.65710764211927      -4.68548753505422       4.81744577191878
F        -3.56300565787244      -3.63480921280163       5.13531022518534
F        -4.59171894243141      -4.95638501213518      -0.32791989435678
F        -2.68681782496095      -4.06397533298146      -0.95710544505509
F        -4.12119099647292      -2.88324614267909       0.22334114341869
