61
C17H36F3NO3S optimized with DFTB in AMS.
N         0.47799678907020       0.51350199912865      -0.27801085022874
C         1.24626279228196      -0.73595702060064       0.07801754473358
C        -0.71011926293157       0.59297175882348       0.63841278729022
C         0.06063433479161       0.42659909260660      -1.72467390258686
C         1.31196109909953       1.75728125102923      -0.10215051361830
C         2.03879167845295      -0.68686922208489       1.37943566777703
C        -1.67209853558960       1.74983249081578       0.37570062553702
C        -0.88862107118013      -0.71891195718906      -2.06336434370374
C         2.65754674060501       1.77221814752247      -0.84178641978881
C         2.84108405831723      -1.99149141594089       1.49225479767717
C        -2.85261370827553       1.65539375842634       1.35128346537135
C        -1.05137099878508      -0.77968424839343      -3.58819023481726
C         2.64211241408319       2.68087096857398      -2.07727874740931
C         3.69958882997272      -2.00372049688176       2.75400024959830
C        -3.84062693087316       2.79838385457975       1.12931448445025
C        -1.99165460043725      -1.91180256967255      -3.99256492168919
C         4.01111589224714       2.68446338574807      -2.75477612461316
H         1.92706097171962      -0.94147895383642      -0.74408678525614
H         0.52073592106692      -1.55021309638766       0.12388427398915
H        -0.31986716421783       0.66668168755854       1.65671139715081
H        -1.24642299377312      -0.35443231152404       0.54728947856169
H         0.97479739331014       0.30595151294057      -2.30651645536753
H        -0.39323907612233       1.38445797890914      -1.98887052836395
H         1.46664617086392       1.87601791937719       0.97247840452526
H         0.69629618974915       2.59264410563453      -0.44411907859771
H         1.37659792510621      -0.57850018967646       2.24451995319493
H         2.73907392087631       0.15153299235611       1.37821919862498
H        -2.05226454661830       1.71028650186222      -0.64771829412275
H        -1.16971736606614       2.71035635819658       0.51546853445497
H        -1.86508807968605      -0.57553026833032      -1.59024305908776
H        -0.47241389911922      -1.66990069652103      -1.72532478061893
H         2.96574630985314       0.77159608025494      -1.14246816120562
H         3.41221491032028       2.14331710134443      -0.14122648101194
H         3.48084532578954      -2.08891743894552       0.60964767989864
H         2.15271214441145      -2.84252354848792       1.50662618701978
H        -2.47837696840242       1.68866307135807       2.37979853875956
H        -3.36373321141910       0.69743501599030       1.21054600181974
H        -0.06861973570213      -0.94664217175079      -4.03800277160098
H        -1.44088456307876       0.17576791392038      -3.95572097775496
H         2.36850233702051       3.69973485067779      -1.77952050883643
H         1.89411035981599       2.32376172606477      -2.79033165134206
H         3.07690712747658      -1.91515850905669       3.64585789648336
H         4.40932744782515      -1.17553511480729       2.74150654188711
H         4.25772856081049      -2.93793655139486       2.81086909341724
H        -4.23736167405292       2.76864018903686       0.11396892097329
H        -3.35285506669659       3.76135566697830       1.28456743044866
H        -4.67055067682617       2.71145273394579       1.83008345334949
H        -2.98199383941452      -1.76769371944534      -3.55681822346527
H        -1.59735620596709      -2.87033625602816      -3.65397628879605
H        -2.08937824732624      -1.94046446414065      -5.07762253649951
H         4.25808441721733       1.67999046688176      -3.09690132305123
H         4.78255042272080       3.02297416706342      -2.06181685993597
H         3.99549571493387       3.35218120000344      -3.61612324542340
S         2.90858171831650      -1.41154599206572      -2.91905711479018
O         1.71410767504236      -2.21464857368527      -2.70101563273061
O         3.78619675533501      -1.33061131832043      -1.75943155956144
O         2.63980361946198      -0.12277754989396      -3.54425979670310
C         3.88151998088327      -2.34315422098229      -4.18192115725861
F         3.18219532317530      -2.47023069849331      -5.30369818824905
F         4.18411575211277      -3.55630823295674      -3.73713136576907
F         5.01085274972515      -1.70491945371540      -4.46257546653792
