31
C9H14F6NP optimized with ADF in AMS.
N         1.65340221444775       0.23165393961105       0.21750833188300
C        -0.80263516150086      -0.07790753281942       0.02028133987363
C         0.37259721231439       0.15222602087798       0.96117812601227
C        -2.12234779622845      -0.15833156737093       0.78878189948487
C        -3.31050450046313      -0.38818734187528      -0.14074330212061
C         2.18001520759503       1.43288363421461      -0.09077871279361
C         2.29898431097743      -0.90967628466319      -0.09635122009308
C         3.38102535043646       1.52074574306767      -0.76620563683370
C         3.50143086711780      -0.87426234020945      -0.77217077507649
C         4.05486178033929       0.35505170481824      -1.11143176204778
H        -0.64833844687113      -1.01380680980366      -0.54827644070027
H        -0.85036224303291       0.74203063240884      -0.71993739559076
H         0.50049073096507      -0.65228013135419       1.69844296463193
H         0.28357546645086       1.08712381588799       1.52915898681999
H        -2.06370104518644      -0.97393435597346       1.53172059882920
H        -2.26953706508783       0.77550586610156       1.36101345489051
H        -4.25156440707197      -0.44156367100344       0.42611185245077
H        -3.40300878254720       0.42954712106967      -0.87306073263727
H        -3.19897757655120      -1.33096977070096      -0.69965163449918
H         1.62454630738373       2.30212838072693       0.25074169869326
H         1.83285864143456      -1.83192360309769       0.24050260898045
H         3.79739109414236       2.50397637434542      -0.97946608026183
H         4.01460802503853      -1.80998194692905      -0.98919293666654
H         5.02275126378401       0.40475573982732      -1.61208927550120
P         3.50107527915073       0.29595968224131       3.33515458264119
F         2.38424284873423       1.39139770454274       2.69896258455762
F         4.35104556451471       0.40435518834046       1.90349814415250
F         4.35987513006260       1.54252858249586       3.95635139758240
F         4.57352516179304      -0.80096125273987       3.90451766101141
F         2.58738089329356       0.18122523454360       4.69184913842491
F         2.59786511816500      -0.95899703518068       2.64845491920244
