30
C8H15BF4N2 optimized with ADF in AMS.
H        -0.28050632263963      -1.28946408961747      -4.53507466418727
H        -1.68002944391318      -0.25908205723561      -4.07372369940320
H        -1.50866042198266      -1.86584900220108      -3.32563617015278
C        -0.95782600109663      -1.00268308464409      -3.72223673746706
H         2.22831662529175      -0.27316031512506      -0.41374102199623
H         1.67666404866367      -1.52490713776552      -2.84155940615030
H        -1.67194286748210       0.79565065471683      -1.67929015484758
N        -0.16921119710455      -0.42552399683794      -2.63573979482545
C        -0.66062407734476       0.40219118700894      -1.70534014477665
N         0.26054843821231       0.55028666877350      -0.74662166801397
C         1.36030272387219      -0.22306530480525      -1.05882052487732
C         1.08948582996053      -0.83656685751941      -2.24693606841648
C         0.00854135523047       1.19189531656694       0.55297176893810
H         0.85166208025765       1.86696613803684       0.77163725455619
H        -0.90739404939639       1.78770646564754       0.43455675421070
C        -0.19357123202640       0.12840216989959       1.62781347810824
H         0.75857729936393      -0.40257404754814       1.81436321348675
H        -0.91647579468379      -0.60387757194481       1.23253499114896
C        -0.72314259194715       0.73080746890952       2.92564728919468
H        -0.01243152160554       1.48448076095271       3.31447075434649
H        -1.66876863801356       1.25720505253139       2.70383998289484
C        -0.97591552231796      -0.34592808963653       3.97780494239444
H        -0.05071443122628      -0.89884722637634       4.20841106517467
H        -1.72057010032313      -1.06977929856297       3.61131268701757
H        -1.35409587753239       0.08927528216106       4.91457344993818
B        -3.16459053132404      -0.93098398832772      -0.63972269228863
F        -4.22800521025021      -1.63849226010305      -0.09042171938976
F        -3.39987294134317      -0.59004639928163      -2.01465417670189
F        -1.94903028782234      -1.69966463840429      -0.58485691767364
F        -2.93603916907665       0.30117731593205       0.07238617795839
