28
C6H14F6NP optimized with ADF in AMS.
N         0.49272952834054       0.20522840273065      -0.27455767046795
C        -0.58205802703891       1.19666480351966      -0.78118691622324
C        -0.27324861343718      -0.88798217536468       0.47055057333606
C        -1.87840309220292       0.75034000605357      -0.12418727475076
C        -1.70820572596269      -0.76702455626327      -0.01565740804297
C         1.45787800670863       0.89525539300385       0.63902214414681
C         1.24530153397778      -0.38120139264191      -1.43456380372715
H        -0.60604134125703       1.10761187639250      -1.87415789566969
H        -0.25257443315808       2.21682289308607      -0.55830793183366
H        -0.20586687238448      -0.65565681413338       1.54370713063830
H         0.21323217426796      -1.85337102198621       0.27810771125067
H        -2.74650279133342       1.05199189162509      -0.72746979603886
H        -1.99300836545122       1.19403081763213       0.87959122859049
H        -2.41148989751491      -1.24312128225678       0.68319373462936
H        -1.82958925406395      -1.24370219486438      -1.00273618007041
H         1.98919350298814       1.65641869618084       0.05407590596282
H         0.88942850300327       1.36270327555214       1.45284199641634
H         2.15361731651463       0.14733085353189       1.04315061785255
H         0.53244928140592      -0.91474958778505      -2.07463744027732
H         1.69839622337140       0.44359310193673      -1.99837964796416
H         2.00480461917101      -1.06966111247285      -1.03998474242700
P         1.27617031829214       3.24448743892468      -3.30246070407550
F         1.90546248241269       2.63045077416697      -1.84099251359417
F         2.65709298976449       2.77437835501819      -4.05238705459492
F         0.62514737506630       1.71630221163970      -3.59364764239677
F         0.63329625371309       3.79072493681514      -4.69842522857779
F        -0.11671432887402       3.63582526605260      -2.47769464476684
F         1.91415051568080       4.70510384630610      -2.94177554762423
