37
C11H23NO2 optimized with DFTB in AMS.
N         0.50951451072287       0.21839692589243      -0.29138903573442
C        -0.76662538106708       0.34569873091788      -1.06557423400262
C         0.28230579631940      -0.69734045787257       0.88410970370886
C        -1.92501299249489       0.84731815627571      -0.21210845182663
C        -0.89681703437823      -0.28753800090034       1.75527310249741
C         1.01786112312881       1.54410202186934       0.20574760884712
C         1.51042955853890      -0.42822923985879      -1.21564185898706
C        -2.17852130437821      -0.11573985418905       0.94601150256711
C         1.23272220767233       2.59158322656825      -0.87239983644071
C         2.91779479147829      -0.56606632887585      -0.65463352919369
H        -1.00162195818768      -0.64934507015907      -1.45607825644210
H        -0.58529468781941       1.01374249927248      -1.90989200675580
H         1.20076706309809      -0.67317289444044       1.48078850606453
H         0.12583786705976      -1.70069073605586       0.47650821664896
H        -2.80749084674255       0.90881747618156      -0.85501527612602
H        -1.71612530723980       1.85047410930901       0.16725431230775
H        -0.65486559627299       0.63253536530668       2.29304410008418
H        -1.03000945575861      -1.07575747658085       2.50069096768798
H         0.31532144967234       1.90984914238838       0.95327951132923
H         1.95363212741667       1.32494120171662       0.72543140321193
H         1.11026142153350      -1.41653757986219      -1.45962229967614
H         1.52896103819901       0.16486863569385      -2.13414248603581
H        -2.97136120230756       0.27812868362089       1.58615491091112
H        -2.50867771817725      -1.08263894318099       0.54959998799844
H         1.67200191053415       3.46326309499831      -0.38725303943156
H         1.92106370317908       2.25336367836260      -1.64586999410159
H         0.29838095736731       2.90202300593825      -1.34012021708282
H         3.49618456147276      -1.16254164395781      -1.36054563925212
H         3.40191301683107       0.40098287505163      -0.54020662179247
H         2.92297520625050      -1.06165447376210       0.31303374365704
C         3.05676419879400       1.00618562261092       4.48183996018581
C         2.29574051539747       0.88376393857139       3.14161716482964
O         2.84874340368179       0.21192153511285       2.23684314629068
O         1.19286977247839       1.46007755660055       3.06901798644903
H         4.04661207509952       0.56158490486626       4.40099261876349
H         3.13977591200858       2.05782232671095       4.75199010370934
H         2.48605794798966       0.49377105275912       5.25564138943193
