46
C14H26F3NO2 optimized with ADF in AMS.
N        -1.78107237233222      -0.60230421716554      -0.14652092717684
C        -2.00980529203993       0.81793824226551      -0.65183778112978
C        -2.78539702770363      -0.89678008483428       0.95280807853400
C        -0.38627695033395      -0.70319503440826       0.46429680499884
C        -3.43889034654271       1.06173053356870      -1.09903963632293
C        -4.22756914799730      -0.67565702860475       0.52364852862967
C        -4.44136948613108       0.74657552680514       0.00698907847907
C        -1.91833890830350      -1.60999874472619      -1.24835155110209
C         0.77022510437253      -0.49973897593332      -0.49780708677255
C         2.10853347788755      -0.51408901444864       0.24770000910799
C         3.28702142368711      -0.32192081377767      -0.70850899978970
C         4.64008718482620      -0.32398344504263      -0.00001322339584
C         5.81054262951567      -0.13923773070725      -0.96337259172955
H        -1.30707065304289       0.99193599736034      -1.47354209685195
H        -1.74878400209784       1.46857934883756       0.19932260365072
H        -2.52638440412277      -0.22024300507864       1.78322163250581
H        -2.60531869631573      -1.93348250270361       1.27513967899414
H        -0.36451708604520       0.05089995340693       1.26813917343861
H        -0.33941836522951      -1.70108572874798       0.93172863942827
H        -3.49792532945254       2.12058411803600      -1.39932957241048
H        -3.65176474647010       0.48536718262787      -2.01353521350169
H        -4.51989957874460      -1.41274466938786      -0.24264136303237
H        -4.86227371099213      -0.87599668795184       1.40280515233155
H        -4.30997448681629       1.46042902618196       0.84115059231604
H        -5.47196294310336       0.86743089935892      -0.36112996075494
H        -1.20964829269268      -1.37450109286015      -2.04758182805011
H        -1.71915912616712      -2.60277194305371      -0.82324212576860
H        -2.93130663779280      -1.57016143437791      -1.65694804854109
H         0.78379421907299      -1.28794736417968      -1.26604190911551
H         0.67429676249697       0.45424541951796      -1.03726943305985
H         2.12131787226494       0.28738602933447       1.01057717520954
H         2.22846898872463      -1.47042707005966       0.79140786071776
H         3.15882934287982       0.62746447907541      -1.26027748125882
H         3.26987643276577      -1.11977960308677      -1.47381164182721
H         4.76108276539125      -1.27493539506033       0.55167414882490
H         4.65520163360295       0.48053227923626       0.75878693411507
H         5.83522294561166      -0.94582783709031      -1.71355503440562
H         5.72798700277545       0.81528518000596      -1.50700211487305
H         6.77247540820316      -0.14359202706967      -0.42921439023682
C        -0.24478941411278       0.82892702692365      -5.60612370348849
O         0.97691510946467       0.87117937820516      -5.84392865930411
O        -1.29278628885404       1.02520057447528      -6.24674157496531
C        -0.50308970689378       0.42978978702922      -4.08337392020115
F        -0.02728794491859       1.38349421044013      -3.18235491074394
F         0.11164338233369      -0.75817781924670      -3.70045521494615
F        -1.83631796462790       0.25584334821097      -3.72241843772542
