29
C7H14F3NO3S optimized with ForceField in AMS.
N         0.56929604364849       0.00158197914888      -0.00530338416505
C        -0.32078960301703       1.07674753782234      -0.52311086582508
C        -0.32202171096171      -1.06575094213837       0.52518180093871
C        -1.74092165608683       0.75162059306195      -0.09695299870565
C        -1.74046978191065      -0.74380216279755       0.09159414491235
C         1.44284739180550       0.52580770343010       1.07146867007882
C         1.41997002453250      -0.52997409686839      -1.09628560914459
H        -0.30485375298955       1.13218841605526      -1.63697903243398
H        -0.03887501997372       2.09068567546605      -0.15608237216039
H        -0.30869668170680      -1.10499857968817       1.63965603767597
H        -0.03984465936257      -2.08474369678124       0.17252478864802
H        -2.48357817258623       1.06533230595234      -0.86283408158736
H        -1.96771419211094       1.25305132611151       0.86987321762162
H        -2.48671224058568      -1.05839921919923       0.85356235752779
H        -1.96126711453935      -1.24540591374394      -0.87655345344043
H         2.12476890343121       1.31484735690110       0.68243183346641
H         0.83698907519520       0.97167019217742       1.89253942836530
H         2.06640594319965      -0.28731756382254       1.50639288951237
H         0.79790914730267      -0.98682133191418      -1.89877808083092
H         2.02528102685675       0.28330225486680      -1.55387394518807
H         2.11606191978320      -1.31090225805213      -0.71587311348453
S         5.57832307265327       1.08489704984252      -3.12891167864720
O         6.21349029226520       2.22626636354082      -2.32057252263994
O         4.63685951968773       0.42215558675235      -2.11288946508070
O         6.72338889271112       0.06872974734776      -3.25409614968822
C         4.80760970763399       1.58067293830295      -4.69687402870545
F         5.76189039728023       2.14463914839011      -5.52219419230147
F         3.81000371017827       2.50472705150371      -4.45056456939390
F         4.26322941886611       0.47159346533175      -5.31597563462444
