61
C19H39NO2 optimized with ADF in AMS.
N         0.76833515036406       1.69624480782430      -0.45881452811575
C        -0.27317192391014       2.42188621973645      -1.27796264450210
C         1.58044797729686       2.71479432936443       0.34401780656588
C         0.14970096315127       0.70344764656360       0.51441689642185
C         1.69528301451078       0.99042164363467      -1.43478066485237
C        -1.18777890788850       3.29550448742848      -0.43502485492436
C         0.70743197509382       3.64621051696307       1.16793195301215
C        -0.37714230375768       4.33461183732157       0.34226397976630
C        -0.69521887208386      -0.38533999975543      -0.11728092268574
C         2.75251637498000       0.09967321744306      -0.80766292770857
C        -1.16904502601657      -1.35352775569118       0.97221342657175
C         3.66950037643693      -0.49154568251931      -1.88028341982623
C        -2.05236749290720      -2.47394251497144       0.42833259956165
C         4.71780704676664      -1.42913905251266      -1.28048502918757
C        -2.52578679116955      -3.44359304154166       1.51067700330691
C         5.63082712212748      -2.06240259632626      -2.32869417816606
C        -3.40413496756018      -4.56548290359118       0.96082846424028
C         6.66153798033238      -3.01373612030633      -1.72321322159731
H         0.29239446428117       3.04375760278852      -1.99223695800457
H        -0.82663800731859       1.66340453180181      -1.84947718594097
H         2.21901754902694       2.10723722716353       1.02038972295842
H         2.17315866292346       3.26544032283094      -0.40622499307275
H         1.00599994580256       0.32372834161040       1.10062595053832
H        -0.42585205458739       1.28669206798931       1.24211995862088
H         1.04959387438991       0.41294603866673      -2.11563631886407
H         2.16415153120990       1.79488428325728      -2.02544726062948
H        -1.90840106445337       3.77610065655486      -1.11827952358717
H        -1.77741387731346       2.67287277369441       0.25864973015538
H         0.30303021386233       3.07256925453928       2.02146725156320
H         1.38896886308052       4.38691934892064       1.61980039657937
H        -1.03944867652359       4.92961164624988       0.99241713829017
H         0.08073903623913       5.03886797860629      -0.37829510537147
H        -1.58216471859481       0.03106588284763      -0.62940302120900
H        -0.12380904911056      -0.95689743662770      -0.87004764112239
H         2.27686431940740      -0.72078833615895      -0.24858681499386
H         3.34182374272190       0.65302401176201      -0.06095998905165
H        -1.71734884357481      -0.78789474059402       1.74688328727653
H        -0.28661402927604      -1.78296827595418       1.47891665616834
H         4.18019796679388       0.31938242403902      -2.43364261198760
H         3.07005387804301      -1.04888317914576      -2.62604217530303
H        -2.93478965047308      -2.03723477675365      -0.07761451935020
H        -1.49782008804324      -3.03768071628361      -0.34652233708178
H         5.32507194461149      -0.87063297835910      -0.54461202863814
H         4.20516851477862      -2.22558604374203      -0.70972229259079
H        -1.64395331326683      -3.87406886435937       2.01871436293350
H        -3.08057428825185      -2.87936605066806       2.28236249977935
H         5.01210538348391      -2.60711818093158      -3.06582955245797
H         6.14820809796246      -1.26287212632210      -2.89050368949840
H        -3.73386690285799      -5.24984325873826       1.75764420543949
H        -2.85941813458798      -5.16169425038776       0.21052716151274
H        -4.30565561078812      -4.15931461335655       0.47343539259760
H         7.31315641798022      -2.48653554200893      -1.00809757801485
H         6.16705946034016      -3.83455108287102      -1.17871882408704
H         7.30330505155927      -3.46227286450150      -2.49680772671720
C         2.69617285082803       0.49706856210574       4.66873100585880
C         2.00536310126233       0.90619321447589       3.35814657675417
O         2.65518063333309       0.66083579783966       2.28078983884503
O         0.87538784478163       1.46063788321812       3.44932018250169
H         3.48443706631525      -0.24635291978798       4.48793643406390
H         3.16026911853573       1.39079153293222       5.11743311423579
H         1.96247150730086       0.11142005819375       5.39162351222102
