53
C15H17F18N2P optimized with ADF in AMS.
N         2.82727973737108      -0.50039000713986       0.88204283852250
N         2.06318782885248       0.05883245281196      -1.07200511865196
C         3.54129290692851      -0.41754026670355       2.16894826409114
C         2.95003023736343       0.65290722974478       3.07558933802251
C         1.47946240868978       0.43069199685015       3.42373651850817
C         2.68256226726847       0.51498192123337       0.02427785938297
C         2.30621715055588      -1.63942694886152       0.31162030747248
C         1.82516055435104      -1.29129370947839      -0.91702710885231
C         1.85212351530223       0.83309200889068      -2.30660531925763
C         0.92518044868855       1.53685170628858       4.31799096367038
C         2.90802565284762       0.51057996735516      -3.35133049607816
H         3.45754963019352      -1.41463330427848       2.62463635840058
H         4.59976752623654      -0.22944411327000       1.93355175596127
H         3.08965961966851       1.64685263938956       2.61457908728591
H         3.55910052792595       0.66749443036084       3.99566608872015
H         0.88179874759808       0.37034067671888       2.49655083370269
H         1.37042484407543      -0.54716351812834       3.92730937280749
H         3.07112806789170       1.51551588637558       0.15730248065764
H         2.34014955986149      -2.59668010840272       0.81568434007459
H         0.83248742519100       0.60935128631168      -2.65690260791777
H         1.88262394864759       1.89464304269891      -2.02085439593660
H         1.35040314565901      -1.88478188404342      -1.68772163260420
H         1.00028592808077       2.51822799185326       3.82256883109445
H         1.48686980633370       1.59783813628032       5.26329940854861
H        -0.13234329406869       1.36211157506947       4.56382581133489
H         3.91443055605505       0.69587188112833      -2.95337839203378
H         2.74722631450733       1.14766015032758      -4.23331769411138
H         2.84736475521614      -0.54072029705710      -3.66651022695085
P         6.74231726888343      -0.06169252283604      -0.71946120800429
F         5.05545831074945       0.03654280751453      -0.89520147370671
F         6.53928323791370       0.12291515658553       0.94372825122342
F         6.95233668062172      -0.22486280960071      -2.36522338427533
C         6.36201489439226      -2.01862193148085      -0.59185615596221
C         6.70295920706660       1.90701022859081      -1.03534058867831
C         8.69551294288597      -0.15729766661406      -0.32900083459106
C         5.74823000899490      -2.73197618682752      -1.84617887455149
C         6.37875554105325       2.86706215371269       0.14460298929731
C         9.68493240395273      -0.52987590740076      -1.46817538893065
F         5.43533402776441      -2.22523143683611       0.42734270732410
F         7.44201688396528      -2.80726169651816      -0.28792807979975
F         5.70771775073447       2.18125626866922      -1.96982533704689
F         7.86152682496442       2.37174875892248      -1.59956227586811
F         8.92183688064291      -1.05646189960607       0.68689691979041
F         9.12574810001724       1.05847646002687       0.15774584157784
F         5.35952003671793      -3.99224098623908      -1.47910902149888
F         6.65602320489650      -2.85653757947192      -2.83375982003574
F         4.64770541809970      -2.11647772188689      -2.34986611418814
F         6.31975665746690       4.15021587088399      -0.30688401876453
F         5.14628665007493       2.58103779774110       0.68476683734308
F         7.28613638081006       2.81869271575653       1.13436738065403
F        10.95144888900375      -0.59681150156379      -0.96774823622110
F         9.68172634827001       0.39585689698132      -2.45282236414548
F         9.38674437776531      -1.73702587102883      -2.00387711830533
