35
C11H18BF4N optimized with DFTB in AMS.
N         2.42563103234108      -0.23122735518167      -0.55573448790128
C        -1.36460887411557      -0.22608675680323      -0.74426340234098
C         0.02537013241125      -0.29129067103750      -0.10761525110520
C        -2.45272875927309      -0.22457461460819       0.33287484983753
C         1.10584139293343      -0.31884369526907      -1.19506570995330
C        -3.84868740644415      -0.18562307413354      -0.29648772877556
C        -4.94120908488456      -0.18892233158112       0.77145170840838
C         3.13330041166428      -1.34455860400934      -0.32568951128882
C         2.86453997312943       0.97077493577148      -0.14445167976960
C         4.33895719334239      -1.27568092040841       0.34840455871998
C         4.06074989486609       1.08905985636346       0.52700644902290
C         4.81547246243690      -0.05098725538189       0.78552849461161
H        -1.49701975537531      -1.09413028406709      -1.39541528159447
H        -1.44772243108567       0.67866331620816      -1.35753855879322
H         0.18761571248201       0.57556749811244       0.54301778835920
H         0.11651966167615      -1.19964784964358       0.49371632122623
H        -2.35471956757294      -1.12599620709485       0.94647028943778
H        -2.32117559122663       0.64355675851632       0.98948913147418
H         1.00220536214284       0.53394371600147      -1.87147479939798
H         1.05523163274058      -1.25083979069356      -1.76200403391243
H        -3.94593227894662       0.71405873787428      -0.91429279189188
H        -3.97584897696231      -1.05511580069346      -0.94935976692769
H        -4.84362268020814       0.68131589660155       1.42268986191697
H        -5.92455642760291      -0.16197138690155       0.30110975452399
H        -4.87369815848026      -1.08922281418207       1.38372899744131
H         2.71712304897736      -2.27939828066760      -0.69320061097052
H         2.23885839807903       1.82630069640899      -0.36935193622175
H         4.89353456145908      -2.18818367179761       0.52563151996869
H         4.39756427951339       2.06694548588596       0.84684723396439
H         5.75694093503672       0.02347648489033       1.31618282199675
B         0.73151429137188      -3.62136886150330      -1.24465916947718
F         1.03069269874059      -3.14001445759109       0.06606476196899
F         0.56241723086448      -4.97354447555598      -1.24909801143029
F         1.84516529867993      -3.23469516897331      -2.05557224300173
F        -0.38966353751076      -2.92793772865544      -1.71204703112499
