39
C9H20F2N2O4S2 optimized with ForceField in AMS.
N        -0.05723427917799       0.23742884870223       0.14959749865430
C        -0.98032518292980       1.22906870513529      -0.49006147281838
C        -0.50533389676398      -1.15749167708086      -0.15029061645578
C         1.29969996472657       0.47095214726046      -0.44810178681677
C        -2.47028147357915       1.00735829629310      -0.17008342802027
C        -1.98114652810372      -1.41869277672045       0.19700240541784
C        -2.89034778854097      -0.41837322289586      -0.50729454085673
C        -0.00235405069155       0.47338796889011       1.61866493154698
C         2.44679231640761      -0.39597739927241       0.12706784590723
C         3.76934825499216      -0.07301347304880      -0.56448135842848
H        -0.87943107692331       1.19007259158467      -1.59987386113049
H        -0.71085521168542       2.26646183682700      -0.18591527571662
H         0.09782713052079      -1.89924880639802       0.41604407045893
H        -0.36553403036266      -1.38363229729283      -1.23245612200668
H         1.58736441688830       1.53900924240689      -0.32280954948809
H         1.26489352814269       0.29375769790900      -1.54818739358914
H        -3.07723205416969       1.71290293940710      -0.77794791604236
H        -2.69221579927184       1.23276108093993       0.89338826456071
H        -2.13897119121556      -1.37161763234486       1.29530484876627
H        -2.25354902010873      -2.44537688984977      -0.13067005922490
H        -3.94182719375005      -0.58152935762472      -0.18702294000255
H        -2.83587643178502      -0.57358140870951      -1.60753859876130
H         0.56693686922278      -0.32501897696225       2.14004008903514
H         0.46987708634754       1.45417299572859       1.84919716888225
H        -1.00645273373707       0.47436502722558       2.08450602515170
H         2.58487622067107      -0.20348089862157       1.21062076257269
H         2.24061250505890      -1.47474262250201      -0.02547504144517
H         3.69384489204332      -0.26853569365968      -1.65524976793016
H         4.04127551483552       0.99146927990998      -0.40088572936382
H         4.57484549068322      -0.71202640001550      -0.14475753557302
N         4.57456850328363       3.83773996118929       3.09960361399313
S         5.51986627507166       4.97866852004475       3.79200308075888
S         4.06317939764837       3.98207660912647       1.55264877772869
F         4.59939776031749       6.34197891024176       4.10258550702101
F         5.32216648992999       3.59894462085023       0.51792487048364
O         6.08119640776878       4.45112303723999       5.08119264971340
O         6.64142256613347       5.34887307532462       2.86257510957194
O         3.62173091519487       5.39326944352459       1.28304715552167
O         2.91959493650779       3.03971377583747       1.31670612872430
