69
C19H36F6N2O4S2 optimized with DFTB in AMS.
N         2.15815943666224       0.69925623267764       0.42382186268551
C         1.91385603339876       1.98541913839851      -0.31604817351207
C         3.09831644476999       0.96584771795806       1.56872788611795
C         0.88929214410496       0.10365614857499       0.95844920753354
C         2.83133313668818      -0.22660400104610      -0.56172543333912
C         1.41301465055183       3.11619021925422       0.57081675696331
C         2.62838385821865       2.08657253869820       2.48674960956437
C         2.40539811320770       3.37671471762074       1.70124121398739
C        -0.11549716036377      -0.35024882135694      -0.09871790742952
C         3.22575868218497      -1.59227922379085      -0.01092866010624
C        -1.39670775111262      -0.82820543980233       0.59581457383568
C         3.91781478337674      -2.38607519119555      -1.12672921111967
C        -2.42764771836060      -1.31092535836390      -0.42897241879446
C         4.43837020767132      -3.74482958582468      -0.64576281288517
C        -3.70827563913325      -1.79378121417512       0.25933544672500
C         5.58516304942553      -3.63629535841287       0.37729843548072
C        -4.73700990375168      -2.27960263007207      -0.76000613100669
C         5.13135240002674      -3.89683146102484       1.81355707704272
H         2.87072438056566       2.27475006323619      -0.75306175715401
H         1.21065918806096       1.77816240985372      -1.12416495168687
H         3.21315822379712       0.03681211091553       2.12850352160956
H         4.05830401055499       1.23962320933866       1.12472675335724
H         1.17515770197295      -0.74575664388701       1.58353911806582
H         0.42358903532278       0.85347024127986       1.60068969896664
H         2.15697066659425      -0.33242352309774      -1.41405415224599
H         3.72708104420409       0.29425290020506      -0.90305123351384
H         1.33178362539488       4.00409882748226      -0.06114245502880
H         0.41912324611422       2.89537662752950       0.97140563224847
H         1.71476606853609       1.80309323991120       3.01874838288871
H         3.41268689994198       2.23696874420806       3.23314692903879
H         2.02068137007788       4.15448570641957       2.36456669235634
H         3.35249904800707       3.72128239141504       1.27595018179231
H        -0.36038262819367       0.47082641198528      -0.77708249107113
H         0.29473842081256      -1.17117597990026      -0.69147972081396
H         2.35165787281424      -2.14346138633570       0.34802904261846
H         3.92231364168581      -1.46334935090681       0.81817444313993
H        -1.82016858289862      -0.00748866862995       1.18458838526837
H        -1.15353167059016      -1.64414919044179       1.28465031010843
H         4.75231787210787      -1.79791155009990      -1.51917696057039
H         3.20669220371906      -2.54628007125519      -1.94450739735249
H        -2.66698331864038      -0.49245746018864      -1.11630287506089
H        -1.99816247487942      -2.12773734021185      -1.01877102090826
H         3.61091431716727      -4.32782305757251      -0.22534299183471
H         4.79881872434933      -4.28396175612025      -1.52729165998452
H        -3.46477025971073      -2.60902286083593       0.94894820355901
H        -4.13577021847189      -0.97459801016708       0.84732348968269
H         6.35616046017603      -4.37025323386251       0.12256227766291
H         6.04480492106947      -2.64572564998726       0.31677703638456
H        -5.63903852164440      -2.61493039060244      -0.24817916984570
H        -4.33655603199746      -3.11181781217799      -1.34033534790505
H        -5.00501002899874      -1.47499694296328      -1.44598075064474
H         4.37217588165413      -3.17893221611099       2.12707996468024
H         4.71352498109639      -4.90070082180719       1.90821993572798
H         5.98202659983009      -3.81021394781050       2.49041408678392
N         5.33179221329119       1.95537730362810      -0.35007627318319
S         6.30160545606000       0.68922880189041      -0.55500314767274
S         5.40614647963528       3.18185822997941      -1.38432636161508
C         8.08434342272397       1.18554359193572      -0.25333969032877
C         4.80310044329369       2.57753062242577      -3.05697022015916
O         5.98176323004097      -0.19655379291132       0.54693155542174
O         6.26744935755357       0.12760900992483      -1.88648922525937
O         6.72202057682125       3.71429900843033      -1.61049889596297
O         4.35025354236578       4.07816371034610      -0.96673859801915
F         8.73530822783182       0.12460163877518       0.19599265941661
F         8.13556963492155       2.13879849952962       0.65959315905293
F         8.65013913224988       1.60034739420060      -1.36531716554276
F         4.21201326489371       3.57888114015082      -3.68811971274135
F         3.88596981471363       1.62032027198457      -2.86135448875269
F         5.76960728793656       2.10301405708563      -3.80758401521633
