51
C13H28F2N2O4S2 optimized with ADF in AMS.
N         0.26176965248913       0.28199263590271      -0.28644147979134
C        -0.05940392158396      -0.48227612282746      -1.56171721467791
C        -0.94035220421579       1.12225515433766       0.10045963175305
C         1.43358633197897       1.20703333089913      -0.60567580679825
C         0.60761327639544      -0.65752645209445       0.85788547126041
C        -1.32185160862999      -1.31538271164909      -1.44689248398049
C        -2.23024990415853       0.32270331302602       0.22083113520675
C        -2.52483586655409      -0.45529434467352      -1.06147197201919
C         2.04101055688787       1.93007806668294       0.58200582863723
C         1.80883576762523      -1.54607886610523       0.61283792454018
C         3.03373096362459       2.98705811449197       0.08665833048336
C         2.13513143135323      -2.35665546098626       1.87076651318481
C         3.74348426827579       3.68498380612288       1.24253935490732
C         3.35750119440257      -3.24735124566145       1.66181684620476
H         0.81563725561486      -1.09095152890376      -1.81719560501222
H        -0.16487451297139       0.28706043597607      -2.34329961120287
H        -1.03792065075689       1.88279030149054      -0.69058009826184
H        -0.68868190672844       1.62994870702598       1.04102059190830
H         1.03453060920350       1.92685757271056      -1.33876610352162
H         2.18856761899632       0.60042667400289      -1.12518034179940
H        -0.28879278749339      -1.25972276076053       1.05333652654138
H         0.76797041154869      -0.00819773463744       1.73287005640976
H        -1.17808281205105      -2.13606757380741      -0.72432899988259
H        -1.47499352900650      -1.79893291476003      -2.42542063817187
H        -3.03647986184061       1.04241147464519       0.43979343236114
H        -2.18592019431127      -0.35857311615473       1.08659579616357
H        -2.73680034596152       0.25837812370571      -1.87855898872505
H        -3.42560827454823      -1.07577097657335      -0.93520991020970
H         2.58324727277126       1.21784611738080       1.22511268730873
H         1.27088533474052       2.42602920122368       1.19887105200595
H         2.69080117008028      -0.94918156814462       0.34227439312192
H         1.62594436195769      -2.24006805960908      -0.22327684536329
H         2.49610955103963       3.72998162174598      -0.52981834177063
H         3.77494365934920       2.49800200044016      -0.56661114374256
H         1.25987277801426      -2.97145983674285       2.15351063026747
H         2.31804985924672      -1.66331772577506       2.71338230759376
H         4.31829918934209       2.96009411198393       1.83989577769684
H         3.02450298790177       4.18635787793437       1.91043052631773
H         4.44679247514118       4.44456483306388       0.87057693270647
H         4.24982964797526      -2.64919021786320       1.42606780708548
H         3.20178911962863      -3.93388194688288       0.81584226834994
H         3.56560299827187      -3.84330620684602       2.56299035875579
N         4.26424525819649      -2.15703674927608      -1.58053411103303
S         5.45347266205534      -1.15644839446919      -1.17076629034810
S         3.33000710740272      -1.81164620745012      -2.83080012087949
F         4.58409302623143       0.10597798819304      -0.42499502629597
F         4.22804580856653      -2.23054936112465      -4.13526485073937
O         6.16554866665154      -1.74651788276248      -0.05633160979850
O         6.14434114454794      -0.48226066095719      -2.25019128151074
O         3.02730160625060      -0.39810047942046      -3.03633607192728
O         2.22096666355245      -2.75597698616751      -2.82301477860880
