46
C14H26F3NO2 optimized with ADF in AMS.
N        -0.04128663978035       0.27515180159762      -0.14227713496220
C        -0.57640111537613      -0.45877140041537      -1.35354298405523
C        -1.20398520449943       0.84813202851839       0.63982834330296
C         0.79388186113139      -0.64173830384948       0.76464944081279
C         0.84108592443519       1.41970432007494      -0.65749924964767
C        -1.60160006085239      -1.52294049065716      -1.00113532463175
C        -2.28755660849601      -0.16716524050620       0.97494461554678
C        -2.78781804002474      -0.89934531291129      -0.26805450635897
C         1.61597418558299      -1.70653029320246       0.06239178579863
C         1.14085881377810       2.52127859452052       0.34494590478203
C         2.51468953661094      -2.40383871205580       1.09046701348419
C         2.13537196904362       3.49859402651940      -0.28633647849089
C         3.36760610169756      -3.49441402634507       0.44904815024910
H         0.29490330840536      -0.85615656413115      -1.89090517882268
H        -1.04405572353917       0.31345884318910      -1.98463931173128
H        -1.61637736734736       1.65667884248884       0.01430592539034
H        -0.78030615793614       1.29717577202680       1.54810512365072
H         0.09642031644204      -1.10126772306305       1.47746869232412
H         1.48360608669269       0.02626483091961       1.30051725657620
H         0.31825178700932       1.82938511622760      -1.53625704460291
H         1.79587792521575       0.95903524623244      -0.95589537813873
H        -1.14394851202952      -2.31314065961099      -0.38441077454909
H        -1.92064074207490      -2.00154831902633      -1.94182518684849
H        -3.10468810376072       0.38541551540314       1.46824333426760
H        -1.91818274310344      -0.89449763171371       1.71708869982684
H        -3.29995882552757      -0.18521623716585      -0.93878833173064
H        -3.52663127240805      -1.66818238160460       0.00836149760900
H         2.25706944924997      -1.24674432456314      -0.70441127481419
H         0.97463209928930      -2.45934978794394      -0.42641280355336
H         0.22487868129365       3.05939892891518       0.64007068387323
H         1.60938588971311       2.09256598630418       1.24515269710406
H         1.88752763500224      -2.83009549921915       1.89691754296924
H         3.18334295356557      -1.64678430734698       1.53403258639688
H         2.33291150695500       4.33511928398172       0.39973973464587
H         3.08039535372559       2.97474595726508      -0.48711004989378
H         1.74529525716092       3.91628566441150      -1.22851544166089
H         4.07250056046292      -3.04141333131978      -0.26406071750976
H         2.74769839022495      -4.24243527621868      -0.07299801457418
H         3.96558696015715      -4.01628027272521       1.21105976183272
C         4.48465152652626       0.06153764845074      -0.26952933092111
O         3.53221156544799       0.69431364699175       0.27234184589864
O         5.24432817719806      -0.81776370116949       0.16333212907871
C         4.66791113355517       0.44901631410798      -1.78662324182682
F         4.84432080398767       1.79761772834480      -1.97672297752041
F         3.51877886602441       0.11454520181261      -2.50906784955751
F         5.69773525337107      -0.17512225653908      -2.41164903501808
