48
C14H31NO2 optimized with ForceField in AMS.
N        -0.00132794503186       0.00162287728559       0.00122734394698
C        -0.84827520015312       0.64037298653074       1.06884834862069
C        -0.84786503809051      -0.63846174753793      -1.06637074592692
C         0.84532000119392      -1.06513609441175       0.64066300130160
C         0.84654422365179       1.06872744858142      -0.63797379751408
C        -1.91239312555956      -0.27312444334507       1.72870862644998
C        -1.91212417285383       0.27389999075633      -1.72675552612556
C         1.90859591902369      -1.72233209001155      -0.27313926399589
C         1.91161954661793       1.72809929046232       0.27491968655184
C        -2.69618660061885       0.49989450196352       2.78588593421319
C        -2.69553499584860      -0.49977189372889      -2.78384603752325
C         2.69011104362758      -2.77708893115726       0.49899034801988
C         2.69562517003086       2.78507293903429      -0.49836476199859
H        -1.35953181606473       1.54554243108577       0.67264143569310
H        -0.20434085814365       1.00608563569901       1.89745404273228
H        -1.35880502551082      -1.54405593452336      -0.67016725227163
H        -0.20397038577903      -1.00448562541975      -1.89486069225710
H         0.20222966283060      -1.89455210121739       1.00623003398945
H         1.35701672242946      -0.66924599616859       1.54599004361245
H         0.20331245676836       1.89733270885815      -1.00430151275769
H         1.35788537309593       0.67213060648515      -1.54319280962683
H        -2.63846642231844      -0.65600080219027       0.98374206317208
H        -1.43540177867336      -1.13488243789779       2.23747263732901
H        -2.63834986032677       0.65659404442866      -0.98191770724919
H        -1.43492935225730       1.13542913530868      -2.23556128893084
H         1.43279761196190      -2.23291978701692      -1.13439546907288
H         2.63615103695964      -0.97849524139955      -0.65515928565526
H         1.43496274568448       2.23677139157089       1.13679509828365
H         2.63791105194143       0.98312134839492       0.65755735842396
H        -3.45051086823935      -0.16637727061968       3.25456560838641
H        -2.01075739732257       0.87098632987745       3.57789590766456
H        -3.22026048609582       1.36206481794171       2.32146468736997
H        -3.44979688740250       0.16632587241986      -3.25286071214217
H        -2.00997140967299      -0.87106797494024      -3.57565497570784
H        -3.21971947350255      -1.36186131709681      -2.31934816923629
H         3.44083070672291      -3.23906490365539      -0.17312570056136
H         3.21648076192345      -2.31611004143779       1.36177065022084
H         2.00487890712466      -3.57037505927597       0.86781009828490
H         3.45054346363570       3.25329284682856       0.16759493818012
H         3.21918694838093       2.32076728610135      -1.36095031241842
H         2.01039590974479       3.57747790886431      -0.86890405211971
C         4.81206986609677      -5.34264926445368       1.37939770513634
C         5.29125900567297      -5.77265490263256       0.02898716137961
O         5.39983062299516      -4.95643564269712      -0.87189025448649
O         5.56545802296993      -6.94340402997420      -0.17859211799242
H         5.15991365624544      -4.31045952172987       1.59873562661265
H         3.70289956532368      -5.37062111427633       1.40345758688690
H         5.20520417441222      -6.02288766936296       2.16355513280795
