51
C13H24F6N2O4S2 optimized with ForceField in AMS.
N        -0.22293246519130       0.31193441228787      -0.16474264972033
C        -0.92091211125152       1.28411420847463       0.73878269138365
C        -1.11741812274557       0.01858940440684      -1.33117479975248
C         0.11972275020994      -0.93050351835942       0.61171565539728
C         1.00500380079421       0.97139320640757      -0.72916872897906
C        -2.32503372083019       0.82491986682736       1.18714950623504
C        -2.50844257376105      -0.50449794652018      -0.93906294829803
C        -3.20823804838320       0.48428405594092      -0.01081872336903
C         0.90703091775481      -2.01166719196310      -0.16280732556794
C         2.13605027507246       1.27909835470595       0.28176863770105
C         1.20062778238174      -3.21100686296359       0.73598225738939
C         3.28690941251790       2.01138782327761      -0.40671470832334
H        -0.32887767018745       1.46613264795582       1.66117012062472
H        -1.03881025160208       2.27030467893801       0.23340525752154
H        -1.27893358974056       0.94669361887121      -1.92895610618813
H        -0.64805441206716      -0.69929077249059      -2.03530528245469
H         0.69664449603862      -0.66223395263090       1.52389979490655
H        -0.79395997047359      -1.42053621771709       0.99855365083482
H         1.43602513321469       0.35054920791524      -1.54638688467348
H         0.72414656518971       1.93367422088940      -1.21768928110674
H        -2.26175355152792      -0.04434671516148       1.87428969402241
H        -2.80473143085632       1.64490347630155       1.76358288639368
H        -3.11883455670350      -0.62360973317931      -1.86029987975105
H        -2.44321710548229      -1.50669808077043      -0.46778006173211
H        -4.16588673007146       0.04581439579465       0.34435731312740
H        -3.44429734731604       1.41546022481766      -0.57146558633595
H         0.32442661510873      -2.38025494720758      -1.03082557265171
H         1.87628156505576      -1.61384519150073      -0.52039082622846
H         1.76994540235331       1.92117439543010       1.10761629802144
H         2.54630157176160       0.34346605773610       0.71319131173723
H         1.75981493631818      -3.98009369737678       0.16257559321290
H         0.25304388487332      -3.66209653277471       1.10134807402269
H         1.81629360474002      -2.90006541149362       1.60690264692476
H         4.09838725427681       2.20743516571795       0.32558140572029
H         2.93770056237418       2.98376816967697      -0.81549624970568
H         3.69882476215658       1.39471306294033      -1.23433746796140
N         4.17097708513634      -1.11575734771579      -5.47291238552635
S         3.58089455868274      -2.62917754116191      -5.25867092708647
S         5.75378010688588      -0.81238773892974      -5.76918503517979
C         3.58838766973044      -3.01725649084066      -3.52181082331522
C         5.98157485018489      -0.56692735471437      -7.51741627095133
O         2.16594534823528      -2.68024289811412      -5.76106532809415
O         4.41518602666910      -3.63586977615464      -6.00117116678284
O         6.61420840759146      -1.95614461634709      -5.30820601215892
O         6.15698522271564       0.44190263975147      -5.04717340009035
F         3.06017246575286      -4.27897915376955      -3.32676800527533
F         2.82261622420550      -2.08943447553546      -2.84471016820170
F         4.88259669114642      -2.98217484050270      -3.03890687212821
F         7.31690594649288      -0.32774537194058      -7.77892412912493
F         5.23140579477260       0.51642786376417      -7.93386169620118
F         5.57511550359661      -1.69572758179324      -8.20322564466044
