34
C8H11F6N3O4S2 optimized with ForceField in AMS.
N        -0.52068352340849       0.20281148267311      -0.43141202424578
N         1.68442742226077      -0.00629295863351      -0.24529024722612
C        -1.92565154269079      -0.11670061765391      -0.67077741288964
C         0.53300853042982      -0.62528021862944      -0.57140055262242
C        -0.01863222984086       1.38147588394180      -0.00987274732722
C         1.35062792469230       1.25009974203993       0.10804761567820
C        -2.68994336967646      -0.16815842617449       0.64667926906161
C         3.02175426907811      -0.58467958610678      -0.22995911762208
H        -2.37403343435606       0.65258669833087      -1.33597937372825
H        -2.01149810422329      -1.10439365203576      -1.17463929443381
H         0.46068350433081      -1.66024485719216      -0.88264669198199
H        -0.60421531981393       2.26671481811369       0.20229712710380
H         2.04721848175128       2.00864391301243       0.44040888922410
H        -2.24953416977483      -0.94425570945262       1.30861071013456
H        -3.75331417079248      -0.42138496441213       0.45236325102248
H        -2.64427449266953       0.81756182844475       1.15628353110109
H         2.98454735896132      -1.65894611579285      -0.51100852373801
H         3.67052547250753      -0.04421039582941      -0.95040838486527
H         3.45407100777693      -0.49655170523042       0.78909235103586
N        -0.24062047266285      -3.84235584091927       3.80658094654629
S         0.87805382100998      -2.86535606507692       4.49962112809038
S        -0.03165628692789      -5.46126802455893       3.65784877781329
C         1.96380624039264      -2.23257469013526       3.23907689006336
C        -0.87904056461544      -6.28486228385764       4.98997561504182
O         0.18124816782656      -1.70966444077978       5.15925549890323
O         1.67994358130716      -3.62009425726014       5.52338234593879
O         1.42903363011870      -5.81575652607541       3.69736937563629
O        -0.62315726297835      -5.91586836192473       2.35416334046325
F         2.88410700769869      -1.37341524111418       3.80896235352050
F         1.21778250405407      -1.54757605251703       2.30140375798905
F         2.62977894953476      -3.27515093070954       2.62320991806732
F        -0.67753788588327      -7.64851988534140       4.89156482998103
F        -2.23230592968494      -6.01522440871125       4.91333375629714
F        -0.39077255823198      -5.83589444613165       6.20222914876720
