44
C12H24F3NO3S optimized with ForceField in AMS.
N        -0.22196529365041       0.30715027419586      -0.17212971415037
C        -0.91364616124673       1.28723936326672       0.72888250381231
C        -1.12238698603012       0.00667224038495      -1.33279402783024
C         0.12379308894428      -0.93396021440160       0.60670864828145
C         1.00662166140631       0.96297448043533      -0.74105418490072
C        -2.32094600600467       0.84494588419086       1.17915642519562
C        -2.51483228107840      -0.50597877415044      -0.92973671150040
C        -3.20747340965246       0.49831176172401      -0.01383702073137
C         0.91936263319320      -2.01224447834720      -0.16853656566670
C         2.12319910635354       1.29646769336939       0.27864231596085
C         1.23034899004367      -3.20699649270776       0.72994327559479
C         3.28841111097033       2.01096134736504      -0.40076938373099
H        -0.32360463637300       1.46495263717588       1.65351543729757
H        -1.02091810247077       2.27416904808179       0.22203915177979
H        -1.28260586920873       0.92874665237757      -1.93983797649661
H        -0.66031906388142      -0.72075548429380      -2.03194961995194
H         0.69608331659138      -0.66490802691426       1.52151228324173
H        -0.78915284198439      -1.42568659088781       0.99484518980139
H         1.44691544832408       0.33294892057981      -1.54572468387917
H         0.72557397545868       1.91466626426617      -1.24956721976700
H        -2.26215969631596      -0.01727542547329       1.87543946884714
H        -2.79391800776049       1.67741923045751       1.74410339123646
H        -3.12950769860579      -0.63584110753065      -1.84671891578954
H        -2.45405980134111      -1.50136664878932      -0.44363688364988
H        -4.16686443909079       0.07032689874096       0.34843444058557
H        -3.43817255039747       1.42434478094140      -0.58534251723992
H         0.33457119194943      -2.38963752935348      -1.03110740198349
H         1.88480281474450      -1.61166476934020      -0.53718479458960
H         1.74206749485155       1.96642553571343       1.07319188559947
H         2.52397205125462       0.37404647337810       0.74600147748668
H         1.79449831604206      -3.97000952844066       0.15297628184628
H         0.28960742660293      -3.66796283285453       1.09980011535445
H         1.84866669540845      -2.88863414988362       1.59611819615436
H         4.08540232792293       2.21393054785096       0.34579438593567
H         2.95036642745134       2.97870676444401      -0.82880279066380
H         3.71223559937051       1.37884080845063      -1.20980004966677
S         3.74151908185564       2.06279047055637       5.76784238471366
O         5.16131344788111       2.27738418891066       6.31201417989167
O         2.90674992031931       3.08350068503511       6.55489304595362
O         3.32721473128734       0.72097858721772       6.38906800042703
C         3.57712611828384       2.16016997535275       3.96400013564729
F         4.36377786990788       1.18912193460062       3.37476260138178
F         3.98258128689158       3.40759357846751       3.52982342491210
F         2.25613202728222       1.95742406233748       3.61629306774984
