49
C13H16F18NP optimized with ADF in AMS.
N         0.15601704552675      -0.52934825406118      -0.90774546432587
C        -0.88822136759422      -1.60607473312895      -1.15406870702829
C        -0.28095403087706       0.05298983759402       0.42031767740134
C        -2.19977203509819      -0.96173715039027      -0.71715018403190
C        -1.81044251840554       0.08890906622692       0.35674222567691
C         1.55422088008984      -1.10118683999750      -0.80697627447105
C         0.08201858447124       0.52399997587902      -1.97325847264939
C         2.03357636310687      -1.79340144913572      -2.06436478633123
H        -0.60628154887129      -2.45041882894512      -0.50626067505529
H        -0.86886299977805      -1.91101492908218      -2.20534269339939
H         0.20554985707646       1.02768124477945       0.56383047194468
H         0.07411276898469      -0.64455757971756       1.19374746063497
H        -2.88464027072184      -1.72803837325449      -0.33006339296879
H        -2.69809752269758      -0.49637045448311      -1.57889311167772
H        -2.17537740077677       1.08970775355305       0.08484409461290
H        -2.22822538356761      -0.14983278476421       1.34501879049021
H         2.20641138116924      -0.25646372334414      -0.53122466288116
H         1.52131388921159      -1.80025918168242       0.04347040809011
H         0.21097044422353       0.05684640877040      -2.95405702700324
H        -0.90725045803109       0.99352600779795      -1.93605915661306
H         0.86324870687798       1.26877427053555      -1.77414170926128
H         3.02045651033951      -2.23276063940686      -1.85564972647771
H         1.36322801410369      -2.60604824812129      -2.37538806009777
H         2.14881965435174      -1.10560661704181      -2.91045209999006
P        -1.44719314676647      -2.25578195266726      -5.28898500073435
F        -1.42137397524298      -0.96886725211743      -4.17577655650222
F        -0.68551299025960      -3.24678910086317      -4.16222602188785
F        -2.19641102472663      -1.26680350065271      -6.38481026919899
C        -3.16549388397420      -2.67772977366142      -4.39493454943003
C         0.39904987749489      -1.57703200076545      -5.87988208787157
C        -1.41416180186401      -3.70067491525002      -6.69071843550605
C        -4.36683839895693      -1.69387406646703      -4.55785883267349
C         1.66851398143797      -2.48854563167539      -6.05688092854374
C        -2.64769850265420      -4.46492758528650      -7.29019708415656
F        -2.96477671311066      -2.73775052669870      -3.01735289885232
F        -3.64827377343492      -3.91499691594206      -4.73820764446132
F         0.86115792510654      -0.67779510567692      -4.90501350652441
F         0.30508144634694      -0.84026467592873      -7.02856620003861
F        -0.54166018079740      -4.69660010022528      -6.30578984851566
F        -0.87270540908846      -3.07519287700473      -7.79590412636241
F        -5.38904025649479      -2.10745661443172      -3.74863958993719
F        -4.83372738172096      -1.66129342946573      -5.82033614522878
F        -4.04635344165850      -0.42949703205765      -4.18032636010101
F         2.76066085361953      -1.67876889078991      -6.22399623880103
F         1.89772153383870      -3.23919368765033      -4.94683405189625
F         1.62160155058859      -3.30387967093865      -7.12309592782305
F        -3.00499737203564      -5.53207611193023      -6.53902291284918
F        -2.30605531915926      -4.95089425651322      -8.51721027495004
F        -3.71501918120142      -3.65229292621934      -7.45616998674182
