39
C9H16F6N2O4S2 optimized with ForceField in AMS.
N         0.83437447137727      -0.00373445306419      -0.04142895981468
C         0.07629559207964       1.22383935512923      -0.41650759399574
C         0.07443034644391      -1.22867422764591      -0.42253812769703
C        -1.35239249713550       1.25761315463935       0.15416463745857
C        -1.35367354557624      -1.26129154762952       0.15148591953502
C        -2.12726846276079      -0.00073623983020      -0.23355879196254
C         1.16038739166609      -0.00575703098495       1.40813691886900
C         2.11822128749651      -0.00203570195542      -0.78569309188015
H        -0.00290381293817       1.30255527043935      -1.52604088190634
H         0.61327861531185       2.13161529817386      -0.06546243373971
H         0.61347056796121      -2.14341814945847      -0.08643571322970
H        -0.00987391716232      -1.29669706496352      -1.53228082482269
H        -1.88144357245775       2.14649426382181      -0.25223350582489
H        -1.33306194912828       1.37127563109527       1.25813960106274
H        -1.33276643421694      -1.37578910935176       1.25533213474268
H        -1.88579190259364      -2.14821140808960      -0.25474588950546
H        -3.11285157726282      -0.00009391219029       0.28057814173804
H        -2.31266387271125       0.00091529549818      -1.33009953389961
H         0.25474575213522      -0.00424916819469       2.04494731988037
H         1.75385514087321      -0.90649803067156       1.68132079679597
H         1.75594333680760       0.89345065878220       1.68290750435552
H         1.94931011621531      -0.00089487460357      -1.88587844743639
H         2.72468473564758       0.89845718966034      -0.53727559013003
H         2.72585192055721      -0.90201008206287      -0.53882973175398
N         0.39057477891292       6.45402908816305      -2.86164616193177
S         1.98142862327571       6.06174047132557      -2.85045475377995
S        -0.16463121309753       7.92818988606453      -2.41007020430699
C         2.38844499806626       5.31580453358724      -1.28659226049241
C        -0.46275586612872       8.90901464272605      -3.86533925902977
O         2.25024746546260       5.06941915896225      -3.94596047740329
O         2.83231249725157       7.28377290010599      -3.05842593656188
O         0.83232564716934       8.62953583170748      -1.52963828204496
O        -1.45915184264445       7.75888084244033      -1.66668064215060
F         3.72166850064523       4.95366453484971      -1.27912855037404
F         1.60866700291524       4.19276348321753      -1.10001880881169
F         2.15053199620936       6.21265212129497      -0.26271079591153
F        -0.91413811147667      10.16055348169532      -3.49285997653772
F        -1.41773224811007       8.29218700239363      -4.65107678123404
F         0.70850601012030       9.04012212642327      -4.58689240186833
