40
C12H25NO2 optimized with ForceField in AMS.
N        -0.09788755105423       0.02422785722422      -0.06227410590662
C        -1.02677152102530       0.51030970473511      -1.13473394332125
C        -0.60052553340287      -1.29134566660849       0.45387899439013
C         1.23584058560773      -0.19716599223358      -0.72115181076364
C        -2.49859280699599       0.60361709645375      -0.69893000065014
C        -2.07035015126847      -1.26388920966139       0.91911011725100
C         0.00241982278729       1.00385252397063       1.07547315497488
C        -2.98973796718812      -0.74334556672582      -0.18060705492040
C         2.38668454783724      -0.63794489022989       0.21670203004495
C         0.60596960344030       2.37638337767216       0.72605090452405
C         3.67359502089109      -0.86032700930841      -0.57456732638303
H        -0.99515930935754      -0.18097331161097      -2.00961290855083
H        -0.70903186910479       1.49674052648330      -1.53243287214962
H         0.00373175723250      -1.63688415822687       1.32010906563921
H        -0.51397948117616      -2.07741722638837      -0.33150462302660
H         1.55894533682362       0.72081507461352      -1.26124793257597
H         1.14018719438796      -0.97436229645259      -1.51498790247367
H        -3.11446990551133       0.88800325506907      -1.57821636263900
H        -2.64410035843543       1.39466685813078       0.06539748015790
H        -2.18542922094847      -0.64960103301364       1.83633975234978
H        -2.38220420933320      -2.29706347209358       1.18540010865887
H        -0.99016839670049       1.20375323518703       1.52305926012349
H         0.59741751489286       0.57230852122132       1.90936317760212
H        -4.02183052958949      -0.63466228622058       0.21680173902784
H        -3.01849245214368      -1.47569125901007      -1.01764214287891
H         2.59569953559115       0.13656390312300       0.98187837091606
H         2.13875936852457      -1.58910192174317       0.72905847707418
H         0.64826130282297       2.99112997519596       1.64998349278569
H         1.64306978383062       2.29246518384478       0.34635822151007
H        -0.02270500233963       2.92755146299718      -0.00056638717912
H         4.48590192354034      -1.17420951514644       0.11452410460050
H         3.52746699452843      -1.65687902353738      -1.33501079635356
H         3.98221447437628       0.07866398323334      -1.08165063545477
C        -5.40995544458609       3.92722470886469      -1.69490690700456
C        -4.55141691086897       3.22784052383342      -2.70069100375901
O        -5.04928057150083       2.45875489985222      -3.50691830814139
O        -3.34723103297921       3.42522847399164      -2.71537365930746
H        -6.47480706356422       3.63306262085306      -1.81464480414361
H        -5.07668925202220       3.65949724267054      -0.67022837232101
H        -5.32402086101829       5.02565263179052      -1.83198481842653
