43
C11H17F6N3O4S2 optimized with DFTB in AMS.
N         1.47140390353083      -0.40669537978600       1.84278509809014
N         1.38008056109666       0.64765909602117      -0.03215250078523
C         1.73426228703167      -1.44717576647602       2.83139446276544
C         1.46534475091985       0.95217662413130      -1.45653383348737
C         1.55897770793443      -0.54925726710684       0.52159924165875
C         3.22999298068516      -1.50883243343311       3.17779521690219
C         0.07295272995565       1.18025765270559      -2.04424240975453
C         1.26154221014856       0.91386588548194       2.13671082650011
C         1.19636640866511       1.57674312864907       0.95296499445876
C         4.04721710765069      -2.27354919556532       2.14084173361509
C        -0.77930990884032      -0.08625393811876      -2.00324324576557
H         1.38516830326279      -2.40045044661069       2.42465799491526
H         1.14708066225644      -1.20354161128909       3.72088147238352
H         1.96636641763027       0.11604916514457      -1.94833903121332
H         2.08275235406435       1.84811541815056      -1.56028207598364
H         1.74079449550383      -1.46936956729612      -0.00369199289525
H         3.61527145768878      -0.49077888265693       3.27346961901486
H         3.31852388931212      -2.00188886897411       4.15028702085627
H        -0.42716670715754       1.98178028261605      -1.49259444049381
H         0.19791722000862       1.50698847893984      -3.07985588701966
H         1.17987765754142       1.26507894029330       3.15010033598892
H         1.07943231656730       2.62336511001836       0.73542811074469
H         4.00423974855046      -1.77574877864451       1.17450458661246
H         3.67823097696529      -3.29461650650627       2.03361390466735
H         5.08894376476780      -2.30726750918373       2.45713533828667
H        -0.91307922067003      -0.42552620786477      -0.97476324178720
H        -0.30433674919185      -0.88498297199422      -2.57392268882952
H        -1.76052840291212       0.11259263401672      -2.43284273024112
N         4.80706761154655       1.18797772538942      -1.34066073659424
S         4.47441896504377       1.62987538869261       0.15529778316076
S         5.70958078782717      -0.13211134599474      -1.53384945518827
C         6.04152228772614       2.32041046218386       0.93635116734514
C         4.45630343662437      -1.37851588211115      -2.15392372283290
O         3.57663343105755       2.76414317427500       0.05095685970903
O         4.05652248808875       0.56901050841645       1.06049651910961
O         6.25286847129139      -0.71238016418753      -0.33341826118632
O         6.56211814290751       0.05606109530905      -2.67208930062574
F         5.77211099337298       3.50247810313810       1.47045583162648
F         6.98546326392505       2.46508567930852       0.02698939866029
F         6.46616545496935       1.51098082537635       1.88827102661615
F         5.04043260039487      -2.47873923054052      -2.58515964318487
F         3.73364389631202      -0.85785120931658      -3.14426221094341
F         3.59484290644632      -1.71668639730086      -1.18139549747600
