43
C13H24F3NO2 optimized with ADF in AMS.
N        -0.10626450972830       0.35524658244564      -0.30850795040449
C        -0.76403600803184       1.47904450101216       0.48747724055971
C        -1.00989844217369       0.01618935834951      -1.48596989298409
C         0.13879508819817      -0.82535152334768       0.59676186992665
C         1.18582151716881       0.88994938736044      -0.90964366944973
C        -2.18972637890624       1.15775201588907       0.90805404281261
C        -2.41585792994161      -0.36644370555739      -1.06106078590312
C        -3.05883482093973       0.78789420440625      -0.29216260008589
C         0.79362469260459      -2.02951509146886      -0.05859079614099
C         2.29808966984164       1.20114984544027       0.07685199717544
C         1.02227079406809      -3.12460981712942       0.98357823822319
C         3.37952336160823       2.00569261330714      -0.65029256843149
H        -0.12064078629818       1.66021660463723       1.35931743341333
H        -0.72235839360339       2.35885871099057      -0.17646130381334
H        -1.05373137622514       0.95223808304694      -2.08020536381967
H        -0.50319958200920      -0.77399563200462      -2.05678503016260
H         0.76258696014112      -0.45013556588025       1.42265698557337
H        -0.83184757041325      -1.11225738923972       1.02173043463279
H         1.51206632632455       0.14858050327894      -1.65488586531523
H         0.88720105777857       1.82615206983079      -1.42000062319997
H        -2.21323340912334       0.35586270900489       1.66796887758646
H        -2.57844958949814       2.06260781211559       1.40476081162597
H        -2.98048817530599      -0.57536727365334      -1.98509695715400
H        -2.43006163513972      -1.29800205195331      -0.46634073526071
H        -4.07699614838648       0.52302664354211       0.03458417205604
H        -3.12678176801740       1.65866715135796      -0.96671547263686
H         0.15337082169592      -2.42115264017440      -0.86539448884517
H         1.75623782064466      -1.74492123828960      -0.51288036539429
H         1.91235412520852       1.81174480140898       0.90905016622218
H         2.73203894434477       0.28191685016443       0.50817814572510
H         1.49597932071613      -4.00641498663010       0.52885933874942
H         0.07077786138741      -3.44799832392328       1.43427661005301
H         1.67760870381355      -2.76944303080656       1.79445156445881
H         4.20891988747892       2.25094920758415       0.02812110557097
H         2.95092222028117       2.94235465231851      -1.03811199293644
H         3.79106694633139       1.43858519204977      -1.50016448131147
C        -0.65979229073011       3.73100626326058      -2.35596619305748
O        -1.51159048745639       2.83132385517596      -2.56759677412322
O         0.33209237335266       3.74101522968820      -1.58195610880877
C        -0.89552182858844       5.06170184472001      -3.14234216183115
F        -1.70284131672443       5.90219104133614      -2.41000123737847
F        -1.51163705888344       4.86570322341333      -4.34403179097924
F         0.26040329013558       5.74268663082300      -3.39562325053716
