61
C17H24F18NP optimized with ADF in AMS.
N        -0.13440364086388      -1.34526644558807       1.79937797921491
C        -0.51971132364873      -0.85289167359997       3.18601919254250
C         0.32773545246376      -2.76384190769218       2.08139761630047
C        -1.31452065575483      -1.36828215331305       0.85083056451432
C         0.50630874590250      -1.47149507904297       4.13961691311585
C         1.13182246032541      -2.66525682207178       3.37237987610696
C         0.98512983482522      -0.52972893514212       1.24615500869173
C        -1.97115990150047      -0.02162975839554       0.61001494293344
C        -3.29164274601754      -0.23099906490422      -0.13692836589492
C        -4.08905700612183       1.06054464320806      -0.29303141291446
C        -5.43566513721387       0.83521300805010      -0.97780155366773
C        -6.25881606825458       2.11540924347175      -1.08731279978707
H        -1.52364774769714      -1.24251962472536       3.38558215927590
H        -0.54580875973448       0.24372118580381       3.18371747865313
H         0.87385231956660      -3.14509559761370       1.20757896480615
H        -0.59021704606893      -3.34734145864753       2.23655029443566
H        -2.03910648043135      -2.05164788908115       1.31406549530477
H        -0.94664533132588      -1.81597943532015      -0.08705600839658
H        -0.02102775167764      -1.80308808823299       5.04452631666944
H         1.27777513589601      -0.74805506483916       4.44126654415060
H         2.19957070001483      -2.49476368686574       3.16738773499848
H         1.04748424160119      -3.60522670940114       3.93442272344878
H         0.63739276551213       0.49965933722934       1.10665777245961
H         1.82331881486287      -0.54401142238716       1.95210687677744
H         1.29557103831662      -0.95627681196506       0.28368470282265
H        -2.19725821747506       0.46063244220225       1.57391478069455
H        -1.31855647616257       0.65459385490372       0.03118778295340
H        -3.90095892127229      -0.96027433402085       0.42408623126673
H        -3.09392449966209      -0.67278665042752      -1.13119831869040
H        -3.49930512210443       1.80171319326881      -0.86548037322025
H        -4.26378678661903       1.49356284268100       0.70838668852330
H        -5.26794929085765       0.40744846092437      -1.98348700070331
H        -6.00144268766111       0.07993510353647      -0.40462297127780
H        -5.72339507748296       2.88338676054077      -1.66918962267894
H        -7.22555347272290       1.93013429849099      -1.57961266236872
H        -6.46351973342934       2.53061901810453      -0.08753247171138
P        -3.99056647545248      -2.78371683730650       4.43510895086198
F        -2.73866035212750      -1.82771117352409       5.06264711267284
F        -3.28628645890073      -2.77931665481795       2.88552473088886
F        -4.71548624769584      -2.82314133872437       5.91795679425458
C        -2.75146404634330      -4.26009710810785       4.87058954170593
C        -4.75650131941063      -0.93796592087419       4.01950786831762
C        -5.53977748117970      -3.85399315650689       3.72411142088072
C        -2.42105796379845      -4.58350175008364       6.36006505716188
C        -5.99740963093496      -0.53974466575931       3.14683627657021
C        -5.96928375299130      -5.29077284574173       4.20952463197730
F        -1.49956864796644      -3.97842312382027       4.31429057446259
F        -3.13947587026979      -5.44468340978324       4.29863933767327
F        -3.71739905119680      -0.26147464573264       3.37186945849132
F        -4.95575427383299      -0.29468774738464       5.21417366019580
F        -5.49286234780155      -3.94983872901517       2.35162199235255
F        -6.63342544816616      -3.07608141286855       4.04307111362848
F        -1.49578893686400      -5.59155679514685       6.39274963415919
F        -3.50022014471278      -4.99834954276169       7.04830500008719
F        -1.87802786142285      -3.51760154677578       6.99439381876820
F        -5.88395419008268       0.77775556145352       2.78888278711370
F        -6.05701565033438      -1.25800318737870       1.99842310508669
F        -7.16316119193552      -0.65478082532139       3.81029054685114
F        -5.37021209013182      -6.27204177479341       3.49557805839558
F        -7.31063038898047      -5.43449704002366       4.01743367901059
F        -5.71929964189343      -5.48271439353956       5.52202911728266
