41
C13H24N2O2 optimized with DFTB in AMS.
N         0.19015475198401      -1.11893389834047       0.76391524600192
N         1.99890173373571      -1.06781882560756      -0.36942985261199
C        -0.83695477261238      -0.73274044071572       1.72082878238990
C         3.29385561370817      -0.64182268989149      -0.88487911527897
C        -1.81499479850640       0.26562726138611       1.09368918533684
C         3.12489223982696       0.07918083956674      -2.22415884754098
C         1.36022591315016      -0.48043935697444       0.64426330735881
C         0.07989403650194      -2.10574016537312      -0.18232867160463
C         1.23126302405581      -2.07425724375441      -0.90069545562506
C        -1.12208993450178       1.56666288713483       0.67590283128958
C         2.28437878010207       1.35199008571848      -2.07963328879883
C        -2.13144954263824       2.59812961076274       0.17834425511383
C         2.17934924429728       2.10392407712934      -3.40345730102086
H        -1.36539212494159      -1.63437695577342       2.04302838604953
H        -0.33373650646047      -0.28125977632663       2.58037672607702
H         3.72898102441698       0.03395937122982      -0.14278351961163
H         3.92820706322471      -1.52536863987430      -1.00183060930301
H        -2.58710789516098       0.48180239342139       1.83860547754082
H        -2.30097433399594      -0.19631520553900       0.22789940413696
H         2.66203119864194      -0.59614318035176      -2.95262795183187
H         4.12301691939019       0.33522005491395      -2.59186149333055
H         1.63512071941459       0.46831220603768       1.35631694811561
H        -0.78555551671382      -2.74090962171249      -0.25820482611125
H         1.56374009670316      -2.68020288249497      -1.72559826074555
H        -0.56566567914197       1.97299250882202       1.52613769111192
H        -0.40144870971140       1.35422643999791      -0.11982924895681
H         1.28043681193705       1.08528449202254      -1.73224268162155
H         2.73943283462982       1.99660670607751      -1.32202672635146
H        -2.84256861977173       2.85110142348322       0.96608451027736
H        -2.68547273853061       2.21221521351533      -0.67905731905624
H        -1.61139180702368       3.50680947928239      -0.12462169071996
H         1.71398664650566       1.47904199970531      -4.16788757853639
H         3.16858481072943       2.40186981631100      -3.75331255572863
H         1.57441326779619       3.00165616375128      -3.27374730845593
C         3.04640707242330       3.49523688461974       2.59196657162206
C         2.74171189047940       2.21488598936984       1.80486448758833
O         3.46029629914533       1.90568900896711       0.85295193709392
O         1.73187972679128       1.55494936930654       2.21209833017271
H         3.20088222049430       3.24377854019398       3.64015510017875
H         3.93355890552479       3.98081093899884       2.19171760143274
H         2.19249459680082       4.16772447330420       2.52067937445354
