32
C8H15F6N2P optimized with ADF in AMS.
N        -0.08859417589052       0.00338499575788       0.63795238931299
N         1.98907566766360      -0.48814036999295       0.25400771891627
C        -1.27722694426789       0.67189526351849       1.19765136013564
C        -2.19729048077284       1.20840265145935       0.10594338068722
C         1.17394100001893       0.28778126199003       0.97786910964551
C        -0.08079310221287      -0.97377456455955      -0.33761696378171
C         3.46098364234112      -0.40748316708547       0.26995997281298
C         1.22702769892504      -1.27941620643485      -0.58220774797348
C        -1.51090256711887       2.21944746459974      -0.80656004059379
C         3.99864590839623       0.25676797395114      -0.98674242841161
H        -0.89207362337810       1.49943761004384       1.81066910191072
H        -1.79146275206126      -0.05532297403828       1.84605017296151
H        -2.62046640666676       0.36918334846701      -0.47596230421834
H        -3.05217494223875       1.67475062572481       0.62651322787730
H         1.48728915700975       1.06414192881349       1.66874376886841
H        -0.99323087143636      -1.36127316230712      -0.77231417900103
H         3.72470287805341       0.18031982079264       1.15920510593930
H         3.83456393057686      -1.43562490827638       0.39747754282107
H         1.67429605517199      -1.98685408694776      -1.26921192751544
H        -0.65947751575458       1.77057319969929      -1.33944392737813
H        -1.11164756721399       3.06589913205548      -0.22864634574857
H        -2.21771163801142       2.60568863491594      -1.55604718943236
H         3.74112918358299      -0.31914955532739      -1.88812114552782
H         5.09458194617294       0.31499174399151      -0.91679880670973
H         3.59498831386703       1.27514463859931      -1.07141854712529
P         2.11813320438056       3.68975156712008       0.69934033680826
F         2.50928138269774       4.75293860234458       1.87304714103470
F         3.07347345866208       2.51441120471240       1.44405191225830
F         0.82417739762413       3.13488337674778       1.63360538013260
F         1.70801805062187       2.54261156946888      -0.46037305399408
F         1.12413390452777       4.76812788464529      -0.02661236105027
F         3.39411945843015       4.14595351275080      -0.21818098306114
