31
C9H19NO2 optimized with ADF in AMS.
N         0.97752427503985       0.14100187820639      -0.37927364406241
C         0.14880247181504       1.38351912684488      -0.68353737790268
C         0.16739723892606      -1.09802296815357      -0.67024893256599
C        -1.17039523639529       1.38638373340131       0.06805249608262
C        -1.14898171601788      -1.12875618797473       0.09083583383062
C        -1.98400369912387       0.11901710372288      -0.20248871361618
C         1.46268565687880       0.16672948794617       1.04504017261128
C         2.19251971983742       0.16977884269500      -1.26190990268255
H        -0.03703176533439       1.34089574756486      -1.77053460839210
H         0.82335475402176       2.25437608386086      -0.47230372312675
H         0.80686329905858      -1.96142537138022      -0.42980526636287
H        -0.01600525673976      -1.09009644829247      -1.75754728531634
H        -1.72401914798522       2.28268284003324      -0.25600668937594
H        -1.00069887386529       1.51564982509748       1.15025639170657
H        -0.95764502593620      -1.22114672836411       1.17325811108201
H        -1.68646999387659      -2.04358441734345      -0.20899451678043
H        -2.90912352206305       0.10700063599596       0.39588876304737
H        -2.28904450098610       0.10470134986820      -1.26561291960694
H         0.61438134332093       0.30786775347816       1.72033823996687
H         1.95013752258277      -0.79691339867261       1.24914803889253
H         2.20831390234563       0.99557719906910       1.10834537419494
H         1.86058171016388       0.24454100253181      -2.30527626025391
H         2.79945373016052       1.03771018443844      -0.94526291642833
H         2.75344454852693      -0.76111206601200      -1.10000884315095
C         4.14233572062704       4.47251308181730       0.57311552627679
C         3.23574005744604       3.27640224268336       0.25797676254049
O         2.15586772163173       3.52679417221205      -0.35745516080191
O         3.63407165578611       2.13181960899299       0.65287277635851
H         3.71897783213192       5.02239418851062       1.42880420435581
H         5.15757090299788       4.14611309727199       0.83618512086371
H         4.17012733902473       5.16728228085007      -0.27844606868388
