45
C13H18F6N2O4S2 optimized with ADF in AMS.
N         3.79489198127854      -1.00593139790182      -0.15717445786509
C         0.05420773904171      -1.79553536692098      -0.37913757857575
C         1.31689362654864      -0.98360335095700      -0.09927458575916
C        -1.22563526861117      -1.04721871885425      -0.01416569421293
C         2.56567579658050      -1.78829678767697      -0.43073736461668
C        -2.48510269093731      -1.86306083127710      -0.29866486934663
C        -3.76792387711964      -1.11963165434047       0.06161165737459
C         4.18466217162404      -0.83480127262699       1.12442673395663
C         4.49623369103995      -0.46791214234585      -1.17492969401689
C         5.28779775449075      -0.06636304751412       1.42754266820891
C         5.61681429805938       0.30092411714443      -0.92040035971471
C         6.01593514434917       0.51413603905456       0.39217014808274
H         0.09646822971649      -2.74421607413016       0.18681553980218
H         0.02603750210319      -2.07151149822263      -1.44922420735680
H         1.31170124159146      -0.05208800012696      -0.69335250422658
H         1.33609495769426      -0.68462606147418       0.96480001265226
H        -1.19981798322129      -0.77610326704538       1.05841811452386
H        -1.26984669461729      -0.09563138132398      -0.57636343807996
H         2.60719132008188      -2.08725131074961      -1.48537889570203
H         2.63654477397194      -2.70750933464901       0.16708138309643
H        -2.50237258224796      -2.13709619205738      -1.36916687003617
H        -2.43474514399953      -2.81289026340436       0.26384728335589
H        -3.85225142002431      -0.17996923959579      -0.50750819635972
H        -4.65780524364317      -1.72837970084547      -0.15846280824339
H        -3.78929225327691      -0.86598128704814       1.13380955453226
H         3.59056442819754      -1.34830053334276       1.87745643957239
H         4.15254207416125      -0.70434999806377      -2.17755329995768
H         5.59108796927704       0.04112826318568       2.46777129031415
H         6.18519435612482       0.69316278925010      -1.76228686459990
H         6.90960029061148       1.10050098338234       0.60899484525131
N         6.58124460677262      -4.58640738538931      -1.30034386829559
S         6.91181192363590      -3.81722732014328       0.06973450376923
S         5.73709513113408      -3.92631099578810      -2.49307084921884
C         5.61037658283943      -4.49301515051744       1.25695479346121
C         6.98558994541075      -2.73800869476780      -3.36484730451056
O         8.15490294827727      -4.32501138866659       0.62185795391075
O         6.64993413694482      -2.37471101338829       0.07261478547999
O         4.64041803090869      -3.03236367722575      -2.09207634776304
O         5.46489135807474      -4.95065624385409      -3.48596688229342
F         5.74522643681514      -3.87809457520871       2.46590805278723
F         5.73137679268036      -5.82166242563660       1.43463945713867
F         4.34206719474377      -4.23664574999951       0.81449792495595
F         7.29645315264519      -3.20845044600552      -4.58858945832019
F         8.12505416489998      -2.57993017122705      -2.66020358631772
F         6.42097204427182      -1.50017320240396      -3.52529173283718
