26
C8H15ClN2 optimized with ADF in AMS.
H         0.87127246366392      -1.96149381162980      -4.11850566269246
H        -0.61482734981029      -0.97625724425775      -4.27932035059684
H        -0.56312218956794      -2.30372217338111      -3.05395180296453
C         0.02415615665215      -1.52704365826020      -3.57627210496156
H         2.61500404766238       0.44659821835838      -0.26220651380782
H         2.64717051398992      -1.06036509254903      -2.59441741735553
H        -1.32633021854946       0.21079385408697      -1.81592515562816
N         0.53194583369609      -0.62401918501451      -2.55521004404428
C        -0.28097421690280      -0.01411082196112      -1.66082821644327
N         0.50369012713663       0.55742922482099      -0.72097836319744
C         1.81514061556408       0.15859477537484      -0.93156767023400
C         1.83032537636917      -0.57885254188222      -2.07340205440154
C        -0.00426416077131       1.20091882804762       0.48982698200865
H         0.64140533424653       2.06748499482167       0.70918608251032
H        -1.00882728767847       1.58266888029372       0.25054863557075
C        -0.07405358884917       0.21791519769049       1.65390084286910
H         0.94808804232271      -0.11127947310056       1.91489589463782
H        -0.62624287695115      -0.67272091362015       1.30007305564499
C        -0.75302976914505       0.82593926486882       2.87764397961968
H        -0.19334229784003       1.71543524283907       3.22328561290988
H        -1.76169686623836       1.17833401875313       2.59350099102919
C        -0.87371501541843      -0.18778782175133       4.01467621534464
H         0.12020522144721      -0.54938158165751       4.32369325587543
H        -1.46085877978153      -1.06007267331814       3.68774082452063
H        -1.36661275327271       0.24838371811306       4.89754030440347
Cl       -1.52945582987407      -2.04609549088532      -0.63983158991711
