35
C9H17F6N2P optimized with ADF in AMS.
N         0.05176433392794       1.24773222810079       0.27417134197628
N        -1.60005559546809       0.46667174566535      -0.90110056315348
C         1.14923611399129       1.33432741113843       1.24477140234510
C        -2.69954545147050      -0.39473664120110      -1.36329643469119
C        -0.71947770750483       0.17525922045870       0.06585323505129
C         2.50344312642737       1.06748084774440       0.59461167418567
C        -3.94545151791070      -0.28871630619271      -0.48237356241331
C        -0.35885094482586       2.25955270458699      -0.56289254054004
C        -1.39837835504256       1.77357901300234      -1.29823893855432
C         2.64179865987990      -0.34575252248357       0.03499246092500
C        -3.82155887128555      -1.03414162242232       0.84186916237555
H         0.91778401368215       0.61483748221937       2.04270906255522
H         1.08016892949528       2.33169028815260       1.69942370135079
H        -2.31704144701041      -1.42779145954319      -1.39249065981529
H        -2.90674882856704      -0.08790065489021      -2.39953570827122
H        -0.66511745099995      -0.75523850829995       0.61393322265250
H         2.68297422333086       1.81408370033231      -0.19951612087277
H         3.26838352638241       1.24585744302039       1.36993546787190
H        -4.15610873530653       0.77698851239830      -0.29271036228461
H        -4.78597732844983      -0.69179511949901      -1.07500799667407
H         0.08774986142115       3.24508980648065      -0.52666228469036
H        -2.03660746279775       2.25005897742727      -2.03130541862546
H         1.90604472165962      -0.53757980341279      -0.76192168598755
H         2.49571483295834      -1.09744129456741       0.82730368621467
H         3.64134204578030      -0.50280660287090      -0.39659829641139
H        -3.00828249655390      -0.63090627914936       1.46054379411540
H        -3.66472912034079      -2.11298590695717       0.67489626852634
H        -4.73748593637408      -0.90841672209408       1.43723624004434
P        -2.34322149533060       2.08890502261534       2.94429168140709
F        -1.81448852750693       2.16173894339328       4.49150317906487
F        -3.21444860292015       3.46261324180912       3.11555200871025
F        -1.01768235512275       2.97915184024955       2.44599530067166
F        -2.81434711937790       1.98254971177310       1.34097988414698
F        -1.43836632746561       0.67430600855695       2.72622965378946
F        -3.63242614280429       1.16488918515855       3.37814954060468
