42
C10H22F2N2O4S2 optimized with ADF in AMS.
N        -0.36240323504906      -0.41067984245698       0.20904662308487
C        -1.46992906494694      -0.29264137753156      -0.81266983896930
C        -1.13229444691983      -0.38182428057335       1.52172843819051
C        -2.57930470242045      -1.20056157283996      -0.28741858733492
C        -2.39405894429045      -1.20633246261219       1.25439769187645
C         0.59908596978221       0.74921931061595       0.09700149728048
C         0.35471493585350      -1.74833200079847       0.09916193476655
C         1.74355873827143       0.71992994466933       1.09646610726720
C         1.08434256967351      -1.99434673730488      -1.20735626454147
C         2.54187334067659       2.02075604512404       1.02266402733116
C         1.86306087476493      -3.30839606261567      -1.10125534175848
H        -1.77551969105928       0.76544187716767      -0.80894305741560
H        -1.08158394551412      -0.54926675286562      -1.80602696623400
H        -0.49378922900759      -0.78375041016985       2.31892709796466
H        -1.36196458574418       0.67772796127175       1.71292466497328
H        -3.56262039811047      -0.81855108386400      -0.59718496140810
H        -2.48169603674450      -2.21535176620572      -0.70062886076098
H        -2.26702669522816      -2.22368675479541       1.65035164238169
H        -3.25124946587146      -0.75733157704724       1.77583473661085
H         0.97302443953373       0.75508935582867      -0.93845385355351
H        -0.01471344247627       1.65418864407880       0.23659148752468
H         1.04194782799247      -1.77773128367199       0.95327340253130
H        -0.40238730669526      -2.52285466013977       0.28248055207902
H         1.35842857004874       0.57215409026717       2.11679874001800
H         2.40988141362552      -0.13352829212806       0.89718314858045
H         1.79052850441096      -1.17457378130594      -1.42025196305189
H         0.38059119038408      -2.05100392584018      -2.05551122361290
H         2.96822631992328       2.17857576172204       0.01988686569487
H         1.91382272502020       2.89118952267026       1.26899921956415
H         3.37351299113775       1.99237117622108       1.74115558708255
H         2.59734932027364      -3.26278686821888      -0.28387977825979
H         1.19038379168764      -4.15172980362218      -0.88521462157685
H         2.39348011005192      -3.51907093477540      -2.04084319916100
N         1.33663058509402      -3.85823987340025       4.67442375635282
S         0.82869981884483      -3.14141093246343       3.36918312701707
S         2.88907430806367      -3.68002418081919       5.14805217373987
F         1.44339972146094      -4.06041114487262       2.10775908806461
F         2.86439093154646      -2.15449785924961       5.78741125336280
O        -0.61017333648740      -3.32142911891335       3.21885528160630
O         1.37668487062440      -1.81046971502833       3.07320955780051
O         3.85234891113486      -3.60009502496897       4.06673651249220
O         3.09247622598414      -4.54983634773775       6.28330524829987
