41
C11H24BF4N optimized with ForceField in AMS.
N        -1.37571679078594       0.16594236360455      -0.05126881189969
C        -1.64830182590147      -1.02469761544255      -0.91410713134103
C        -2.47309910862886       0.16871208959293       0.96423359842647
C        -0.05562250037319       0.01159578323982       0.64253305416910
C        -3.01733348166188      -1.57224565135472      -0.55537172568697
C        -3.20743188269142      -1.15485623644500       0.87522400110335
C        -1.44016443285162       1.41030346550233      -0.88293355647438
C         1.17347669994770       0.02445566544107      -0.29960884976370
C        -1.15984809337158       2.71242042504454      -0.11002329379957
C         2.44717308497376      -0.35423170069430       0.46634879067992
C         3.67741057592873      -0.32920825334345      -0.44773852327189
C         4.94031645542621      -0.70546201703579       0.32194923930564
H        -1.60963006265028      -0.79675928834329      -2.00409090208030
H        -0.91725805124325      -1.84762426649935      -0.73924766475994
H        -2.10962447423562       0.32906847209408       2.00487824715702
H        -3.22573832439102       0.96690534613273       0.76756268451064
H         0.08247616021926       0.81382207715464       1.40072113575371
H        -0.05096791415126      -0.94300358802717       1.21842287918087
H        -3.79445139536983      -1.09807949412225      -1.19505276893282
H        -3.06554225937037      -2.67769043607460      -0.66683391439914
H        -2.73276877736771      -1.89754543196897       1.55397589617385
H        -4.28493437690976      -1.05015183510922       1.12999436978964
H        -2.44965013869421       1.50093773049662      -1.34551333868028
H        -0.72652836202935       1.35444331786380      -1.73368808523579
H         1.31304247074110       1.03966872585800      -0.72594119988688
H         1.03413284117183      -0.68754770428099      -1.13956110865287
H        -1.80539674385573       2.80544218523452       0.78608864655070
H        -0.09685223405289       2.77608663389843       0.19715551918698
H        -1.36594511125961       3.57949187642836      -0.77263161354758
H         2.32993153259060      -1.37496680108507       0.89209207315479
H         2.59776694578675       0.36269417517831       1.30345163600599
H         3.53852846663616      -1.04847755736586      -1.28425324662466
H         3.80731606333647       0.68874673641585      -0.87571747746183
H         5.81643120618595      -0.67366175322895      -0.35900152536889
H         5.11209951033721       0.00943255026171       1.15459804003438
H         4.84882733656416      -1.73280629139184       0.73461378235842
B        -1.82893215065927       3.13728193024394      -5.00285644451970
F        -1.55827546580386       1.93422758792247      -5.70759437761925
F        -2.14012026005113       2.83474896815454      -3.65226046941055
F        -2.93190938352041       3.80065019608126      -5.60297060845185
F        -0.68681225376435       3.98022724146889      -5.04757975557193
