26
C6H11F6N2P optimized with ForceField in AMS.
N        -0.52944438597307       0.19114630674878      -0.35308321020662
N         1.65533959835314      -0.07276809282480      -0.04296884140987
C        -1.92788810163106      -0.09915280302197      -0.65634590910655
C         0.49906618957504      -0.67823047666796      -0.37517069207252
C        -0.00784619635468       1.38078137071952       0.00897970543246
C         1.34930084375958       1.21666580326795       0.19981968172905
C        -2.73784287312109      -0.19425118329200       0.63034893528001
C         2.97445931883948      -0.68451369630007       0.04959649072696
H        -2.34343125806502       0.70075559755804      -1.30669360076719
H        -2.00578275754667      -1.06324425630799      -1.20510227543557
H         0.40340734440069      -1.73052466915942      -0.60979212110529
H        -0.57058424374735       2.29784110510664       0.12658946535768
H         2.05709409087997       1.97903532186675       0.49916818649533
H        -2.33065298280629      -1.00284756326233       1.27428066901296
H        -3.79652089978823      -0.42601195314002       0.38952578171740
H        -2.69611837877825       0.76818575666223       1.18283898842152
H         2.91796066439917      -1.76983178147971      -0.18117906181737
H         3.66244580551082      -0.19886089776140      -0.67398462060890
H         3.37361378170101      -0.55625446677601       1.07771956695053
P         0.96649249326787      -2.80385460970569      -4.52756154604173
F         0.49404665724877      -1.15365421520083      -4.60089900452660
F        -0.65898902994029      -3.23087465960666      -4.17090082287887
F         0.68123344110336      -2.99677379726412      -6.21057865347595
F         1.42224091381787      -4.45699688402127      -4.42612465029447
F         2.58982617767252      -2.35452097323807      -4.86460262753532
F         1.30619922962271      -2.64556282169959      -2.85292501624106
