28
C8H17NO2 optimized with ADF in AMS.
N         0.69154297955058      -0.57283983010871      -0.03149453525550
C         0.59398453529247       0.80955766646066      -0.66168289306825
C        -0.74956447277935      -0.94525720924427       0.20591767848141
C        -0.53173969453356       1.49318790305595       0.10900564427969
C        -1.42243288788788       0.34942982314925       0.67173000851739
C         1.44420637714572      -0.47713181902455       1.26832512982904
C         1.40914793471025      -1.51716586696261      -0.94309123124158
H         0.33638772016220       0.63990389503304      -1.71770100002445
H         1.59663288860095       1.27702957786551      -0.55779461343216
H        -0.79377627724103      -1.77860309959871       0.92148860361689
H        -1.14458698942711      -1.27903066818184      -0.76518901912777
H        -1.09193325994245       2.16759577226486      -0.55347263797900
H        -0.11872177182833       2.10696458963294       0.92297672966822
H        -1.47831722059021       0.39426247584372       1.76924924463320
H        -2.45380067502085       0.39591223286877       0.29445329883624
H         2.38888766051435       0.06339787297884       1.04994794129351
H         0.84657823157774       0.10561663257708       1.97972832440624
H         1.59846473638895      -1.49568570294930       1.64691127885250
H         0.81898140655779      -1.61352948297802      -1.86508700227237
H         2.40612214772706      -1.05165667277407      -1.15269977275248
H         1.49075497525354      -2.49065603641758      -0.43976846730332
C         5.43146264472781       1.79973219201358      -0.93527695964584
C         4.09449867408714       1.09070626686746      -0.68906483612911
O         3.82657956605967       0.10029605971344      -1.43186078404235
O         3.35141200157618       1.57442848787620       0.22942150906296
H         5.75557300808548       2.35347900411329      -0.04386006531610
H         6.19978982297148       1.07618615171507      -1.24225111325042
H         5.30539536436141       2.52007303230999      -1.75936510473658
