52
C14H18F18NP optimized with ForceField in AMS.
N        -0.35497591599105       0.32505135653108       0.01190087555875
C        -1.35459563577518       0.55161368680036      -1.05726558753720
C        -0.81123474453702      -0.92522020226530       0.65902165882955
C        -2.68693124121978      -0.00182022479907      -0.56235401401534
C        -2.33215766854598      -0.95650714015658       0.56629724227220
C         1.00711894000651       0.18639825361326      -0.58506066415377
C        -0.40100772902789       1.45724655439002       0.97543350686530
C         2.12436746325021      -0.07079140237563       0.45052271522984
C         3.43853642438390      -0.43080819020709      -0.23375657470514
H        -1.08490051814973      -0.00475076838989      -1.98548933667172
H        -1.44386525079999       1.62692374430327      -1.33523253211205
H        -0.47984512802569      -1.00303523556578       1.71908129036206
H        -0.41716249682140      -1.81738010630559       0.11855421708337
H        -3.22773825802810      -0.52875319226296      -1.37864711274663
H        -3.32511666251814       0.82450266276153      -0.17915848058498
H        -2.77723169923170      -0.60050034066405       1.52145884162094
H        -2.69817115459413      -1.98507823022315       0.35569549875957
H         1.26396997453941       1.10904077614009      -1.15472065133910
H         1.01580909741341      -0.65067518274984      -1.32105480906198
H        -0.01959718770284       2.39190569174288       0.50779692844759
H        -1.43883743123883       1.65161203481155       1.32581931615767
H         0.20564661439850       1.24626202611894       1.88184294004757
H         2.29725294638269       0.84137667272830       1.05977216595648
H         1.84754183516186      -0.90428720549958       1.12879521205705
H         4.21909693045895      -0.59166300218244       0.53853737142396
H         3.32591517685061      -1.36576333583079      -0.82292187188910
H         3.76285796084938       0.39169416106965      -0.90602662848718
P         9.91328854478904      -0.11350908699386       0.29831157086032
F        10.91552019973171       0.17895978144614       1.67011477221496
F        10.46549514165592      -1.61464266979069      -0.34193233880743
F         9.42207678221747       1.30106481921523       1.14584328219804
C         9.14242056433371      -1.42822477247436       1.48533878961498
C        11.58751579147660       0.46492505116762      -0.48757898027783
C         8.64624514785935       0.48635647000800      -1.01102930271043
C         8.34890273568272      -0.87689490558295       2.69072205653674
C        11.74335453679199       0.33923178241641      -2.02812311661207
C         7.16723159200133       0.55773281488047      -0.59949740722049
F        10.15838187058572      -2.21420775650412       2.01765250059060
F         8.31334694405464      -2.27692432221583       0.77087820061807
F        12.63827860568084      -0.25822762522612       0.06875301342037
F        11.78198849220252       1.79878276058156      -0.16473301271418
F         8.73050649955380      -0.35221312335066      -2.10827061656245
F         8.99222659778822       1.76505400861006      -1.40967975629961
F         7.92470992909166      -1.93945431832086       3.46904920542240
F         7.23211368706304      -0.17800131175799       2.29413764995996
F         9.13606708823298      -0.05873938537797       3.47989882167383
F        13.07318007991367       0.53997116436785      -2.35495192441011
F        11.38199272293682      -0.90985958602414      -2.49543777097325
F        11.01435714389489       1.29965818936875      -2.69849721279890
F         6.68618767611721      -0.68009676673236      -0.23230712233905
F         6.42691796560320       0.98832382578140      -1.68636183963734
F         6.97541858725288       1.47123615367524       0.41981166738514
