44
C10H20F6N2O4S2 optimized with DFTB in AMS.
N         0.01317391124773       0.66241269204720      -0.01434068115978
C        -0.84063494569452       0.57636408137169       1.22646435388244
C        -0.80617372439494       1.01582737034740      -1.23206572749234
C         0.65655896241564      -0.67578137764084      -0.24810569979852
C         1.04166950135242       1.74561803094281       0.20963496301710
C        -2.03460873314971      -0.35949375384119       1.13391367275977
C        -1.62502133511602       2.29052782453394      -1.12208669160355
C         1.62411891420253      -0.73022873178074      -1.42216970288042
C         2.14317774982395       1.40311090610212       1.19887113897962
H        -0.18308398472334       0.25396975356698       2.03624354535394
H        -1.18354016846815       1.58826828749788       1.44764148177588
H        -0.10060078791558       1.11639555394446      -2.05930629694425
H        -1.45556143587355       0.16066601636077      -1.43682757850406
H         1.17226640336397      -0.94931440438523       0.67490008135141
H        -0.14893374648747      -1.39399190655951      -0.41581130787971
H         1.47314473089627       1.99768972736079      -0.76062677917446
H         0.49489061302243       2.61540091062944       0.57257132165793
H        -2.54444992735166      -0.32280547568516       2.09669859922908
H        -2.74066187489308      -0.04404110410874       0.36824406949765
H        -1.74170526129121      -1.39137430229129       0.94520867335222
H        -2.14879080082475       2.42162071809960      -2.06902049764934
H        -2.36232988407225       2.24077412261519      -0.32495505108452
H        -0.99107501556964       3.15789422916201      -0.95971733584764
H         2.09240228826535      -1.71453909394935      -1.41559470236040
H         1.11056432018900      -0.60634315241913      -2.37379657663815
H         2.40763739145759       0.01992832524990      -1.34387380942806
H         2.75194862024020       2.29988432209326       1.31120217668842
H         1.74453651439287       1.14411246023002       2.17758912469141
H         2.78525151171742       0.59604065892737       0.84952720653691
N        -0.38541026627300       6.06148399137744       1.54989837717953
S        -0.93572677120795       4.76921187779972       2.29639066497178
S         0.17668150132057       5.89619858905792       0.05429901236193
C         0.53419456641766       4.02772893502097       3.20483520961308
C        -1.32461433714770       6.05430443443874      -1.06410431607444
O        -1.81927937185292       5.18255507295038       3.34849197509085
O        -1.36063326028694       3.65769618919037       1.45163372877648
O         0.71812391262470       4.58888878851494      -0.28522217111631
O         0.97565325086189       7.04998337362866      -0.24281185466915
F         0.30474930914362       2.72160634046230       3.39489841675451
F         0.72558113056270       4.59436595001503       4.37962799498818
F         1.64825583758984       4.13450909478804       2.49009386351168
F        -1.10612233423890       5.36856163782249      -2.18373896416976
F        -1.54201562484106       7.31825567814503      -1.37457964879872
F        -2.40784569143398       5.56194556736623      -0.48397208844818
