31
C7H13F2N3O4S2 optimized with ADF in AMS.
N         2.16142431465471      -1.04549491981368      -0.84848130193033
N         0.39976620508997      -0.00197992687353      -0.12133345792936
C         0.94251744474637      -1.21160568912941      -0.32726498699478
C         3.11338354312626      -2.11255974560279      -1.21417978588183
C        -0.93416487117657       0.23874287115705       0.45308841519074
C         2.41989254005959       0.30460349667146      -0.95366888601007
C         1.31491350607893       0.96016753324750      -0.49564980610624
C         2.79644892913357      -3.42465758783261      -0.52834658566514
C        -0.89738703590362       0.49980708290542       1.94888575118209
H         0.48211431360496      -2.15493645300710      -0.07205400366578
H         3.08499712897278      -2.20376844469612      -2.31269965527380
H         4.10280415078382      -1.74412578000462      -0.90504419091966
H        -1.36491727685645       1.08523447756724      -0.10333304050377
H        -1.53907927949502      -0.64942115045761       0.21646297761144
H         3.38004366939701       0.67208555870815      -1.29707258993712
H         1.11951660074985       2.01784455095659      -0.37260264231473
H         2.77872796113016      -3.28367348529390       0.56243160392246
H         3.59304107810055      -4.14261687668526      -0.77044249115477
H         1.84569266704246      -3.86096231853959      -0.87163018561063
H        -0.43432169707329      -0.34416993292292       2.47839060239036
H        -1.92710146930646       0.63874063780134       2.30948299438587
H        -0.31515527653997       1.40095526963233       2.18284323691983
N         3.76142439150135      -0.96745593936209       1.58858568261545
S         2.76267865210142      -0.70159662620688       2.80913288511192
S         5.06779081001269      -0.05967704235749       1.34529170730727
F         2.13952620997897       0.80970704057966       2.46255260903848
F         6.13113494378134      -0.60783974382115       2.46883060442390
O         1.62092973629949      -1.58781112252060       2.60619327349819
O         3.34401878128296      -0.54114150003833       4.12328448230470
O         4.92318323932337       1.35432223645410       1.62635477883770
O         5.62793196729880      -0.49437986831518       0.07119584605762
