47
C13H13F18N2P optimized with ForceField in AMS.
N         1.11656029102819       0.37526986483884      -0.39826671276301
N        -1.10693601805850       0.37239714409136      -0.39372033324605
C         0.00468302885294      -0.21639126204707      -0.87667809586315
C         2.49950855785316      -0.01366936525387      -0.66010869566585
C        -2.49012003299157      -0.01416210386950      -0.65964310552361
C         0.69530817647746       1.37418518458025       0.40388671845628
C        -0.68464789954079       1.37257076018649       0.40639293936783
C         3.10217173456431      -0.67853403237061       0.57174563675365
C        -3.10579120611841      -0.66621365806544       0.57356239378168
H         0.00455924384629      -1.07191431108651      -1.54110320662691
H         2.54116501855982      -0.72778259924475      -1.51131810443907
H         3.09270269193470       0.88519358532362      -0.93363479015215
H        -3.07935890345192       0.88345222196527      -0.94604018109797
H        -2.52784578306747      -0.73609813690285      -1.50451394174338
H         1.34267444896073       2.04725016076891       0.95158373996822
H        -1.33105324879338       2.04516810820656       0.95535168671096
H         3.03856216910524       0.00457842000569       1.44336537455657
H         4.16783822214413      -0.92639946952042       0.38288801005598
H         2.55014093015423      -1.61331630297505       0.80650208189791
H        -2.52312649458606      -1.56903987449103       0.85593498150423
H        -4.15128910081803      -0.96876134073400       0.35403524638641
H        -3.11054607354811       0.04630307284906       1.42548326956373
P         6.25216473294637       1.71698762996936       3.10808806460926
F         6.05169565690388       2.66644874998845       4.53008623955915
F         5.00722423522849       0.53733858240417       2.97387877245011
F         7.42851860303108       2.95728774460370       2.91819597957633
C         4.72491349806069       2.79965845370216       2.60444568255652
C         6.92514938495669       0.63661603285139       4.56698234044395
C         7.25457551652844       1.06534564320041       1.58985056165142
C         4.89823942798828       4.34200325097711       2.63333133944737
C         7.33363792249208      -0.81685859109793       4.24053965348998
C         7.03748159854112       1.77888718482144       0.24015945511956
F         3.66545226826910       2.51532009208185       3.45721350074383
F         4.31496831628146       2.45334625306957       1.33357998273631
F         5.95597020407694       0.54000111204366       5.56103749777665
F         8.03943247696686       1.26061268533677       5.10935069814349
F         6.92198991341716      -0.26057340394825       1.37618695357752
F         8.61249820993995       1.10823469298849       1.87444937871000
F         3.77855868045946       4.92503933691147       2.06615635148770
F         5.99784200138666       4.76372060749431       1.91790140857292
F         5.00018789080143       4.81378592834745       3.92998573202579
F         7.63360567176334      -1.46868792197844       5.42415681256458
F         6.30665141567963      -1.51081088751823       3.62910541315739
F         8.46358656278587      -0.86322535958725       3.44997499451896
F         5.82761521284261       1.41495810317224      -0.31936103882629
F         8.03231631679640       1.38752153858250      -0.63858543799387
F         7.10017239894903       3.14915856542863       0.35978912891905
