24
C6H8F2N2O4S2 optimized with DFTB in AMS.
N         1.37960094055288      -0.31822329904438      -0.62157577674151
C         1.69559941095220       0.81084061573649       0.03151672592509
C         1.38065145966850      -1.50473522206279       0.00494120783111
C         1.21885863654017      -0.27443035972866      -2.07184176415782
C         1.97261889605460       0.78350037980131       1.38318583421779
C         1.64934617844971      -1.58327992554276       1.35497237750932
C         1.95349260451004      -0.42699475184782       2.06073489213606
H         1.72568000372477       1.72229992577544      -0.55135395687586
H         1.17730248532610      -2.37954787383022      -0.59950233019976
H         0.60194300739053      -1.10888781881589      -2.39658728677728
H         0.76403854955521       0.67090782659509      -2.35882966884778
H         2.21451807592332      -0.35747151734800      -2.51741058522940
H         2.23281716705630       1.70490102663946       1.88790409357997
H         1.64866197971642      -2.55140765135475       1.83902647762562
H         2.18761159212669      -0.47129114330000       3.11707899473083
N         5.77081937095287      -0.87483235489174      -2.07060908156868
S         4.81883053588099      -0.52761889414265      -0.87473709632415
S         5.13668638950849      -0.66461590569097      -3.52830420820506
F         3.70874088278605      -1.77087690879407      -0.87645549362646
F         5.08750690777898       0.94350662321674      -3.68170311354360
O         5.49928899706749      -0.70646708491130       0.36419900754081
O         3.96533887468673       0.62819990264000      -1.01370885265624
O         3.76387774846494      -1.06042193147289      -3.67222568276497
O         6.08375935402604      -1.10062513722564      -4.49188397797802
