63
C17H36F2N2O4S2 optimized with ForceField in AMS.
N        -0.52380717935801       1.78630229754916      -0.20106965045918
C        -1.38610110998186       2.32591156558452      -1.30229055811988
C        -0.20776398506969       2.90405471367469       0.74764173239123
C        -1.20047268668988       0.66916477163106       0.54741241448389
C         0.75493585554998       1.32718389994796      -0.84558349259178
C        -2.67631202537335       3.00403036244305      -0.81298494194606
C        -1.45172902998536       3.63664357797320       1.29161982515062
C        -2.35022679514913       4.13138395973708       0.16122988010453
C        -1.50939885279850      -0.60482897447676      -0.27691667795944
C         1.77752541861677       0.63996915490364       0.09403475444891
C        -2.19365408366594      -1.66046449269206       0.60257897108642
C         3.05100247489432       0.26681693943375      -0.67703199385887
C        -2.48355159921736      -2.94190863473523      -0.18820666584274
C         4.05642868914883      -0.45904495192588       0.22582390928221
C        -3.18737209097898      -3.98115953602543       0.69258847854066
C         5.33095272630416      -0.81509508121986      -0.54884772344380
C        -3.46078928592212      -5.26745441225706      -0.08113064574894
C         6.33466261595102      -1.54253912852916       0.34104645066946
H        -0.82228060659250       3.09013890533519      -1.88802750940029
H        -1.65194519864276       1.53817652253969      -2.03738308714858
H         0.35640816829610       2.53138980020143       1.62956007173875
H         0.43821629950904       3.66569775144139       0.25232434603507
H        -0.59028294934431       0.37602336826551       1.42974878171616
H        -2.15934566351557       1.00853658780112       0.98432065639888
H         0.53629403344979       0.63115415051201      -1.68615854560975
H         1.27016501045672       2.19382870029877      -1.32183126074148
H        -3.20997283522725       3.43303823607802      -1.68854333429674
H        -3.36723166841618       2.27170901992370      -0.34745198656786
H        -2.02782953383191       2.98437346623292       1.98031358260635
H        -1.11791172655411       4.51216850049295       1.88962035472328
H        -3.29226095723768       4.54020644677610       0.58613046187800
H        -1.83636458954354       4.95015506045731      -0.38481497941057
H        -2.19170482939318      -0.36772030515468      -1.11784703845941
H        -0.57725481724515      -1.04579989498008      -0.68458534710651
H         1.35058492128468      -0.29040077920894       0.52122577547056
H         2.06246709948121       1.31698084510706       0.92455635790267
H        -3.14957206024340      -1.24756514878373       0.99457872614468
H        -1.53553981061279      -1.90469488592524       1.46562431631139
H         3.51988219198462       1.19166407984853      -1.08018264545069
H         2.78430559258159      -0.39421839429849      -1.53116256617498
H        -3.13086358987585      -2.70001649552977      -1.06001171206825
H        -1.52637470525426      -3.36536604481724      -0.56499498233168
H         4.31897920672954       0.19495918164858       1.08652094501325
H         3.59239242907920      -1.39078406055217       0.61861435695731
H        -2.55119932641360      -4.21971547657928       1.57275299118584
H        -4.15330119621383      -3.56926788286020       1.05837297321607
H         5.07517577645543      -1.46905338234857      -1.41101216754060
H         5.80313343489860       0.11273609699161      -0.93937025247015
H        -3.97105694441993      -5.99804420811785       0.58141073263335
H        -2.50768751110434      -5.71493677229050      -0.43504133667864
H        -4.11626284650823      -5.06138083456105      -0.95390610401204
H         6.62588844948429      -0.90086817324100       1.19966053440140
H         5.89748130305405      -2.48988369167586       0.72212552926007
H         7.24548528184710      -1.78353974697985      -0.24656414223090
N         1.10575103370850       5.73433754314276      -2.21963864267123
S         0.19167766185881       7.07903585659752      -2.40296495304300
S         2.49182403034740       5.53104632468719      -3.06500377267501
F        -0.64847968641323       6.97663160260906      -3.84754497662792
F         3.67004496175119       6.54182599319004      -2.43729059072168
O        -0.78238323396440       7.18677663174365      -1.26519562549197
O         1.06913006602325       8.29909054435758      -2.43284489242009
O         2.26900397750931       5.88119900047171      -4.50984558064497
O         2.94536233340268       4.10332822933646      -2.95371935488531
