32
C8H18BF4N optimized with ForceField in AMS.
N        -0.35129021229356       0.38105514121325       0.05457781167928
C        -1.38995627906687       0.64767568176143      -0.97810557797292
C        -0.83567763331885      -0.81042091533654       0.81238841724226
C        -2.66904081398966      -0.02479015518780      -0.52694501677498
C        -2.18938618049408      -1.22348319286337       0.24906356497377
C         0.95392390463573       0.11238157833596      -0.62388820141586
C        -0.24973236086300       1.56203076625595       0.95153386466505
C         2.15597972738826      -0.05533479793890       0.33367253612163
C         3.37265359347579      -0.59767500513097      -0.41207378311785
H        -1.11573766817636       0.20822825566913      -1.96607494701120
H        -1.56242463244061       1.73501800494185      -1.15447438533184
H        -0.95596806305673      -0.59717217863874       1.90029920305720
H        -0.14540907007991      -1.68035149855014       0.74021023521183
H        -3.30524243870119      -0.32231946459774      -1.38906444348114
H        -3.23901306143214       0.65737908662788       0.14042539651310
H        -2.90512447328401      -1.50092965190858       1.05251950411392
H        -2.06015407835891      -2.08609895449587      -0.44248989045761
H         1.19303899574927       0.94461767184080      -1.32586872073315
H         0.86515291853616      -0.80993672197247      -1.24501371688716
H         0.17630803071329       2.43684186951153       0.41141724757704
H        -1.25078600710826       1.85282418734261       1.34440220999444
H         0.39365071575180       1.34911951709779       1.83275393054176
H         2.43137230360315       0.92868042509006       0.76954094846002
H         1.91255940070312      -0.74894013384263       1.16529456276764
H         4.23555249358026      -0.67247968429201       0.28286434038568
H         3.15605856441138      -1.60882536560285      -0.81807126844779
H         3.64585487559422       0.08063051895249      -1.24892648736286
B        -5.76560586292415       0.68309415156739       2.31934935137708
F        -5.46854937880100      -0.42114862114243       1.47744284959461
F        -6.20656470539720       0.20842906869152       3.58323155329209
F        -6.78912742152867       1.46843840738481       1.72527763230805
F        -4.59988190952727       1.47620122081657       2.49191670921791
