29
C7H13F6N2P optimized with ADF in AMS.
N         1.74844004959225       0.57193333410305       0.14234825871445
N        -0.32312591793616       0.98571075750859      -0.34822114100098
C         0.72325978040220       0.20178326548079      -0.63465987896495
C         3.07839948370915      -0.05253779437361       0.12165818215840
C        -1.58205970596224       1.01428144064583      -1.11648052820966
C         1.35057443245882       1.62283571792180       0.94203228604005
C         0.04878505032139       1.88753643378882       0.62630218916728
C         3.19449497811891      -1.15784805388342       1.15840325696749
C        -2.21185435344300      -0.36078035553036      -1.23431556899866
H         0.76350941556901      -0.52313977297729      -1.44076076117392
H         3.22871259634887      -0.41412561888664      -0.90491868347026
H         3.80517360005876       0.75374225151838       0.29575716472092
H        -2.24158483570082       1.71458311898873      -0.58560526793804
H        -1.32805789008053       1.42899516058238      -2.10416854729839
H         2.02193680238503       2.09330253415410       1.64909676157744
H        -0.63206560286513       2.64441285122880       0.99471424779712
H         3.03066989802232      -0.77312202982165       2.17642183373671
H         4.20138634297843      -1.59907546230047       1.11355876368548
H         2.46238250574484      -1.95552581502155       0.96322393856289
H        -1.58172829850580      -1.02936494582112      -1.83731932754960
H        -3.17616592257130      -0.26631447579376      -1.75479439430152
H        -2.38930384576746      -0.80587533178299      -0.24333768940548
P         1.36522337348647       0.82629975853339      -4.02479986373411
F         0.24740580025994       1.52472895856654      -4.99588074303837
F         0.95884129702466       1.89628420449863      -2.79663808863811
F         0.17257876032036      -0.22394085745042      -3.43265264225328
F         2.44720414031929       0.09239662488034      -2.96033592205030
F         1.75082710996577      -0.27493484013086      -5.16811164517244
F         2.53785050504600       1.84582214187396      -4.52569736193017
