38
C12H22N2O2 optimized with ADF in AMS.
N         1.30626601227405      -1.42343411548081       0.08658889723219
N         2.14548400776133       0.10848551660130       1.38174639951485
C        -0.91859280481665      -2.10700097330463      -0.73568796596880
C        -1.52606226899140      -0.71762475218671      -0.58531643344408
C         0.58126930002822      -2.05321290356916      -1.02257632732964
C        -2.99754944546947      -0.72412418189664      -0.17855528334343
C        -3.52504439460371       0.70145218048679      -0.00885007044321
C         1.65963676421341      -0.13146190953034       0.16134423611133
C         1.53320442401950      -2.00897744974830       1.31860546942036
C        -4.93959881340197       0.75194345723395       0.55997231288701
C         2.05013090747222      -1.04148714919728       2.13176610776612
C         2.45605196871989       1.41977355676720       1.93968086470794
H        -1.08386674151824      -2.69335415318282       0.18687397861154
H        -1.39660898732748      -2.66875945683031      -1.55887643458200
H        -1.41112355259294      -0.16516889670872      -1.53919055555647
H        -0.99201539375266      -0.14804468368094       0.19862976115132
H         0.78877613996236      -1.45736882098301      -1.92495416614700
H         1.01466436128492      -3.05424050472379      -1.17243955625605
H        -3.61269175227329      -1.27462632626952      -0.91662419684532
H        -3.09617135969392      -1.26270551486365       0.78314352539096
H        -2.82599033589376       1.24717567659785       0.65064475723143
H        -3.49711807994495       1.21162302488118      -0.99013363548355
H         1.52875822415830       0.60306958564569      -0.62095590137006
H         1.29548994252966      -3.04795781627118       1.50753722701211
H         2.29222870945701      -1.04454638100103       3.18640589876816
H        -4.96149998517585       0.35431246922746       1.58787310605122
H        -5.32159431123212       1.78412811410801       0.59396080137124
H        -5.63853468040451       0.15183848092080      -0.04671031903260
H         3.52217506631163       1.45930643117083       2.20162381256736
H         2.20073193135074       2.18437578629067       1.19944120969492
H         1.78514716314799       1.50196131711408       2.82555079829084
C        -1.93375197372367       0.19342338834271       3.53803466620649
C        -0.56374130117776       0.65490501866119       3.01471922096722
O        -0.50130160128699       1.07214001424468       1.81645950159050
O         0.39740226564419       0.57572913248394       3.84312685911792
H        -2.68785186728474       0.17356957495925       2.74115857378075
H        -1.84422948775743      -0.80346097703085       3.99652730302985
H        -2.27050773371188       0.88093332042210       4.33014484432859
