55
C15H20F18NP optimized with ForceField in AMS.
N        -0.04694836633748       0.24725342901217       0.16649131572119
C        -0.96893930304687       1.23752102817831      -0.47674102141576
C        -0.48905127481164      -1.14798663631515      -0.14053464466812
C         1.31447129947403       0.49007046766909      -0.41805410718360
C        -2.46134738327097       1.00917792219558      -0.17189841513541
C        -1.96654484661410      -1.41510353057363       0.19592972165316
C        -2.87424864964178      -0.41770308927218      -0.51377375691849
C        -0.00257403925658       0.47804720301059       1.63638656571767
C         2.45428462186907      -0.39906185990589       0.13742564251748
C         3.77754016348680      -0.07865214978121      -0.55485442071112
H        -0.85861497537001       1.20379239478754      -1.58601384729147
H        -0.70631818484909       2.27477171268512      -0.16590821147685
H         0.11000827494945      -1.88987620085402       0.43016073413183
H        -0.33916691862066      -1.37089102915381      -1.22215350754281
H         1.60951437998019       1.55346150531002      -0.25721721757949
H         1.28349664395769       0.34202323117470      -1.52280570977753
H        -3.06524008001756       1.71232671561335      -0.78522293454189
H        -2.69388381176179       1.23258008466298       0.88981713478579
H        -2.13262603206521      -1.36845925553747       1.29321897333202
H        -2.23358348760364      -2.44238421060725      -0.13339454201273
H        -3.92713137828652      -0.58480788111273      -0.20003944366695
H        -2.81250103404133      -0.57241799522022      -1.61379500495627
H         0.56567641412829      -0.32099696816881       2.15807130564695
H         0.46758630600459       1.45822495164369       1.87416677392838
H        -1.01037584775701       0.47779836273766       2.09461848577726
H         2.59506609271601      -0.22635943433468       1.22397259821472
H         2.23877680836722      -1.47303502132624      -0.03351103949169
H         3.69670820473658      -0.26674716291874      -1.64651900636209
H         4.05628169826670       0.98332358553111      -0.38560062463635
H         4.58139460280933      -0.72517922774490      -0.14326839866483
P         9.58265027942594      -0.20672319962784      -2.71202101711165
F        10.36380270208695       0.73830120063045      -3.92147747100414
F         9.52108416477824      -1.87423930022268      -3.14436875879319
F         9.79014218606605       1.31579374751930      -1.93846643997830
C        11.42616765597468      -0.76437849809490      -2.48211665241554
C         8.26571172346159       0.10354665113135      -4.09726726288577
C         8.49670378222193      -0.41753367573905      -1.12663782046659
C        12.47127312017033       0.33098184479260      -2.13631400925261
C         6.90749507761661      -0.61459547970119      -3.95186422524417
C         9.23464425662562      -0.61872872103658       0.21155779326630
F        11.86542711330708      -1.36255295977861      -3.65693185917325
F        11.49855699496329      -1.72746438097015      -1.49551232820740
F         8.77623303155037      -0.30314027642167      -5.32684559222847
F         7.99973125521816       1.46410118296329      -4.16566897295275
F         7.69551810788238      -1.53419378108445      -1.28427910712152
F         7.65370157682764       0.67644718963562      -0.98545315358770
F        13.68263653773374      -0.28232021435207      -1.86905431610602
F        12.11856882682551       1.06129040429137      -1.02185572108267
F        12.66895924565707       1.19778407141174      -3.19596374617994
F         6.17177180137953      -0.40983975139214      -5.10630186931588
F         7.06753478688088      -1.97810404070720      -3.79188310278851
F         6.17368673927177      -0.10167205446218      -2.90150246935238
F         9.79284192803620      -1.88109957508106       0.28013202336090
F         8.32002688477869      -0.51535893874458       1.24529603343052
F        10.20791170086601       0.33360458845564       0.41665583229773
