37
C11H24ClN optimized with ForceField in AMS.
N        -0.56123671303624       0.09441444971599      -0.10045380210868
C        -1.53873392443640       0.55248672424282      -1.14188767362318
C        -0.91774297294604      -1.30182347012976       0.31708218208759
C         0.78872613839370       0.06822499161841      -0.76458963020409
C        -0.56765994141073       0.99539765415723       1.10546745113553
C        -3.01033286512059       0.46231354449650      -0.70548769814590
C        -2.38273679425663      -1.46961882746515       0.76893892731293
C        -3.35608627290565      -0.96434955673829      -0.29196527586125
C         1.98196997330701      -0.31845326264380       0.14439403305465
C        -0.12931636859096       2.44983213404720       0.85473224082719
C         3.28982045363113      -0.32567133742112      -0.65804678913125
C         4.47484671912811      -0.73309999838841       0.21333696287703
H        -1.43917507306021      -0.07118728122634      -2.06139843889342
H        -1.32646289832296       1.59074664400226      -1.47302548267579
H        -0.28168905998967      -1.63985986314703       1.16352128338007
H        -0.74273969217227      -2.01702888144376      -0.51953472754350
H         1.01129939700728       1.05330844569695      -1.23218448877807
H         0.77764481699376      -0.65046011208291      -1.61714188207599
H        -1.57286362909715       1.04654636472682       1.56711723378400
H         0.07573290179502       0.57770157224609       1.90980927554456
H        -3.65660341506069       0.75238015514548      -1.56230200009886
H        -3.23239275974296       1.17258722755463       0.11745451225237
H        -2.56258683853593      -0.94774625650428       1.73195411747360
H        -2.57977129249930      -2.54904795627237       0.94848770755580
H        -4.39166740449812      -0.99317327580872       0.11042863745844
H        -3.31310122865191      -1.63027254185653      -1.18229113700956
H         1.83170887426302      -1.33159307759765       0.57012412519151
H         2.09477188872472       0.40951741095564       0.97383148654307
H        -0.14549024561746       2.99632543831523       1.82139424644012
H         0.90504895050282       2.51402337681555       0.46332887813043
H        -0.82761744005665       2.97589197135088       0.17409317216900
H         3.47975201461464       0.68972411919062      -1.06921281800388
H         3.20795072616502      -1.03970196700854      -1.50672985236974
H         4.31755798710269      -1.75142829402190       0.62892144874824
H         4.60551465992330      -0.01221012770378       1.04820705415056
H         5.40114729993816      -0.73877942411509      -0.39917812645555
Cl        5.01706301611817       1.05845994609709      -3.74413892523798
