41
C13H25ClN2 optimized with DFTB in AMS.
N         1.20625150574331       2.22751027874119       0.07088853212163
N        -0.90979514274932       2.27328279716883      -0.32240310919333
C         2.62508446036083       1.93888974497607      -0.07892437129747
C        -2.19951619988684       2.09321820563722      -0.98808098508507
C         2.93568836681743       0.54749975068072       0.48479842539480
C        -2.42335574702859       0.61100022188556      -1.29782319424970
C         2.16720897735350      -0.55792379982653      -0.24523153520785
C        -2.36316350917905      -0.24964289179433      -0.03223494041988
C         0.27905916851560       2.05182766905154      -0.87590794594098
C         0.58398301184024       2.54899185872959       1.25099879735106
C        -0.75041399075384       2.58097992749347       0.99814215060430
C         2.48361165331504      -1.93726779391242       0.34136243521136
C        -2.71305421227293      -1.70831464873217      -0.33689629956070
C         1.67932280248040      -3.03025697452952      -0.35919518629487
C        -2.61822319032313      -2.56849839854983       0.92195185024575
H         3.18924548786197       2.70328396557669       0.46196752825287
H         2.87413542178080       1.99466235471559      -1.14216538848537
H        -2.19877139973185       2.68737285218937      -1.90582785265108
H        -2.96808239053966       2.45574497652781      -0.29575445256158
H         2.68445428573758       0.53037902897930       1.54945075467580
H         4.01205606755441       0.37951393017541       0.38787268382188
H        -3.41076039911941       0.52177232504507      -1.75944291288164
H        -1.67700546498320       0.26881315157293      -2.02460377231810
H         2.42527357162442      -0.54052979580586      -1.30988967834651
H         1.09160277086089      -0.37049372007291      -0.15907808318377
H        -3.05752504547598       0.15483646458918       0.71079263855479
H        -1.35329929344746      -0.20052277602130       0.39178813037568
H         0.47012955153010       1.79831173984163      -1.90429346816291
H         1.13882145431766       2.73105658709098       2.15410627109527
H        -1.62164394402138       2.75140333177294       1.62680706168604
H         2.24616339033602      -1.93821204327468       1.41021115727755
H         3.55393031719246      -2.14244780972530       0.23487988651889
H        -3.72988388692009      -1.76291378073514      -0.73912619695373
H        -2.02920748741727      -2.09962806811456      -1.09984090488297
H         1.91226364483919      -3.05463946145212      -1.42456091147883
H         0.60993058689571      -2.85123974562152      -0.24143921951678
H         1.91823205371394      -4.00219268229918       0.07194468129107
H        -3.30301470483492      -2.19962222124910       1.68591850283388
H        -1.60412048550307      -2.54527727814934       1.32502448093554
H        -2.87666765538183      -3.60230258427365       0.69100756540537
Cl       -3.71288091570170       2.35765171049836       1.85335925441955
