39
C11H18F2N2O4S2 optimized with ForceField in AMS.
N         2.37274404582703      -0.01664313352695      -0.53141769512745
C        -1.44452215150036       0.04198560870957      -0.69378403038081
C        -0.04316723614240      -0.00096893773195      -0.07336546174635
C        -2.52530942827613      -0.01103954659637       0.39191920704100
C         1.04355800550590       0.03959769663890      -1.15165853472483
C        -3.92947353450015       0.01676634958264      -0.22256923808198
C        -5.00466662478520      -0.04551478289837       0.85852051593348
C         2.94372220828242      -1.23026527512141      -0.26045965640427
C         3.02117826198578       1.14332236566869      -0.20546279838450
C         4.19874991362275      -1.30324245157579       0.34851704309051
C         4.27649686842019       1.10571294639984       0.40678944599099
C         4.86606894572170      -0.12643746258602       0.68476026949854
H        -1.56982616155979      -0.82405947383344      -1.38058631453636
H        -1.55888558550834       0.97887970233928      -1.28252972671425
H         0.08821098271172       0.86849190773373       0.60771088282528
H         0.06980445882833      -0.93345682311688       0.52209689753310
H        -2.40322785578385      -0.94351209468225       0.98606437299203
H        -2.40453387975966       0.86022910849530       1.07286869951016
H         0.93841311881072       0.96911798797394      -1.75483678236808
H         0.91264950476640      -0.81530267573610      -1.85230871914105
H        -4.06342646183512       0.95097690031081      -0.81030474710371
H        -4.05716497853297      -0.85048531405738      -0.90651503494511
H        -4.91642428109222       0.82605032986702       1.54153801436187
H        -6.00940043775527      -0.02604780918274       0.38636993092930
H        -4.90726704847516      -0.98304379021162       1.44640652477106
H         2.42749182705903      -2.14983599395711      -0.51041617093527
H         2.56614974775372       2.10474170055293      -0.41183822578179
H         4.64674047794070      -2.26513410822418       0.56132240932782
H         4.78556415146178       2.02423433919532       0.66708513726691
H         5.83687614238239      -0.16921990024959       1.16157942725619
N         3.81109526790281       6.78750560320166       0.52255805171375
S         4.27704711926513       5.22035328827616       0.47558955669566
S         3.53902401970497       7.55190747150631       1.94358541844285
F         3.09984802301293       4.27082797756908       1.19270419859025
F         5.00484738924695       8.00754892943216       2.61082789381262
O         4.47023251846641       4.79540218110542      -0.95230644756689
O         5.56465781355888       5.05039748364874       1.23155733077688
O         2.83123738219406       6.63469162173319       2.90129902695434
O         2.70208866767394       8.77563580954746       1.70139337632812
