23
C7H12N2O2 optimized with DFTB in AMS.
N         0.85904770400613      -0.15703394465854       0.32300263569247
N        -1.34144529746775      -0.12522903053627      -0.24141789917129
C        -0.42126654832845      -0.70361726464058       0.70880978253152
C         0.57660883506750       1.03255881281229      -0.39212263709005
C        -0.71125174368866       1.05141255764372      -0.72616961751346
C         1.88461162972475      -0.10481489000714       1.36315316475782
C        -2.72992965496335      -0.00362728453253       0.20388214616483
H        -0.42804144368669      -1.79960295094330       0.70071601817818
H         1.37651556380095       1.70418518735158      -0.65498265095432
H        -1.26568399666876       1.74163539234192      -1.33931080483991
H         1.98601288882270      -1.09844564315300       1.79880644056551
H         2.82727249628979       0.18304232251944       0.89815997357209
H         1.63019618545405       0.61662933624707       2.14646371052729
H        -2.83216333103912       0.72455535040637       1.01445839850827
H        -3.33336745805584       0.31160744709698      -0.64697986079210
H        -3.07183970703722      -0.98021275341294       0.54599774221724
C        -1.09740500351865      -0.55562802926511       4.37785780514033
C        -0.64562596699827      -1.15015795466923       3.06388902854804
O        -0.79254418737499      -0.27699267914604       2.06934389522523
O        -0.21111540378870      -2.26346409283545       2.93687353865382
H        -0.57189373927290       0.38149129441674       4.55184887447096
H        -2.16481699347270      -0.34672981132229       4.32420762992936
H        -0.89767992340381      -1.25471050321368       5.18588317957816
