49
C13H16F18NP optimized with ADF in AMS.
N        -0.84134787434878      -1.06803730094287       0.43422127460208
C         0.05512090354082       0.14984429949707       0.55618516543810
C        -1.53057183769102      -1.05635834474228      -0.92999188107573
C        -0.68908510501783       1.45478707013619       0.32990011973053
C        -2.27499779036701       0.23713036046740      -1.18736399791212
C        -1.37639885574238       1.46145462512616      -1.03568018053829
C        -1.85037839038698      -1.09967165100950       1.54504818860323
C         0.00804741811097      -2.29680524794723       0.53620754749218
H         0.84119626289914       0.01937477990657      -0.20515695464744
H         0.51961654200554       0.09918196029754       1.55291721237623
H        -2.20709619280742      -1.92055494842044      -0.95787796093247
H        -0.71779127407551      -1.19935578926218      -1.66135909001276
H         0.04839114867323       2.27067039300847       0.40811463142889
H        -1.42325668294206       1.62197293810592       1.13537357923230
H        -3.15541441531106       0.29881272941725      -0.52950108603006
H        -2.68058053289570       0.16499177000215      -2.20793825747493
H        -1.96380541607441       2.38386878210797      -1.16136355428887
H        -0.60654045733033       1.45934326436390      -1.82980861379934
H        -2.51989327113497      -0.23992914698293       1.46255524867148
H        -2.44181798500850      -2.01483481255499       1.45147727558591
H        -1.30774837935115      -1.07360687124803       2.49885637840188
H         0.74693561655671      -2.28102015861677      -0.27506661185758
H         0.51512725649966      -2.29062391746388       1.50998615939307
H        -0.63751587134068      -3.17825499966324       0.44854922002383
P        -5.27100653938012      -3.22118356364389      -0.64662555765242
F        -4.40788651216915      -2.05396007155661       0.24044623166432
F        -4.26212947483168      -2.88880272207155      -1.94964396008709
F        -6.25678761223392      -3.55919592259483       0.65273547060137
C        -3.91487864569917      -4.47998993840253       0.13274997020493
C        -6.54521845752815      -1.75334226036198      -1.07468455022706
C        -6.14773126569041      -4.57576196024960      -1.82492610105780
C        -3.91622795987084      -4.68976778911642       1.68699506244967
C        -6.27308818192198      -0.79980712225919      -2.27458505739204
C        -7.17694525608802      -5.56625322323539      -1.20714686922177
F        -2.63077158092483      -3.98265465807721      -0.15632540066443
F        -3.91684321582089      -5.75900632237483      -0.35393522092144
F        -6.61874097740620      -0.90637241207404       0.01788674440049
F        -7.81664423987237      -2.24093926144007      -1.24676357219429
F        -5.18724256029070      -5.34865305431108      -2.43759189390218
F        -6.81004926028936      -3.94405632040324      -2.85415981246757
F        -2.75852164929809      -5.33650379519927       2.04125814197075
F        -4.94716197811717      -5.45633857066304       2.07950061684278
F        -3.94247483911987      -3.53135773627849       2.39525164708622
F        -7.29488592382373       0.09386187452519      -2.38970101193553
F        -5.13264979408761      -0.07939732988756      -2.06340333933795
F        -6.14758288863272      -1.43728171603181      -3.45434647545514
F        -7.59237752195463      -6.44466386574698      -2.16445410273892
F        -8.26813607849712      -4.92535371552966      -0.73573031859051
F        -6.62924616441152      -6.28452307649818      -0.19822532198452
