37
C11H23NO2 optimized with ForceField in AMS.
N        -0.05548772418279       0.24504502821782       0.16022939248189
C        -0.97274432475344       1.23720530514388      -0.48713808796201
C        -0.50402477965801      -1.14914279134032      -0.14301610221482
C         1.30753758412102       0.47886315216119      -0.42322134936773
C        -2.46644856154575       1.01572527600087      -0.18266438191089
C        -1.98145679413940      -1.40788769981647       0.19820080784213
C        -2.88445714852384      -0.41127135671334      -0.51887045194266
C        -0.01019709986529       0.48028769630847       1.62934769458472
C         2.44036777134881      -0.41744856696450       0.13534001513121
C         3.76793227799292      -0.10074722496192      -0.54899431428108
H        -0.86211137070773       1.19884131462757      -1.59617251606873
H        -0.70575736602832       2.27429496394411      -0.17965593948698
H         0.09318788649701      -1.89268572920316       0.42736025015753
H        -0.35837251130369      -1.37409592306802      -1.22479326831311
H         1.60904419507664       1.54044450396823      -0.26190187608296
H         1.27747976399541       0.33069498377021      -1.52785744853728
H        -3.06590484560863       1.71833204931275      -0.80043807322731
H        -2.69916418110145       1.24510486203893       0.87761659213937
H        -2.14523376533239      -1.35171962344557       1.29541031514844
H        -2.25219952013094      -2.43731394048146      -0.12181662267452
H        -3.93922037318667      -0.57350396195687      -0.20846318094481
H        -2.81951995394729      -0.57152128439136      -1.61804939727008
H         0.54670206446693      -0.32458764439025       2.15428271859191
H         0.47334325948532       1.45456200486173       1.86450131344737
H        -1.01804221245600       0.49592712100667       2.08648975620536
H         2.57720027219900      -0.24871169621134       1.22305412071713
H         2.22134622298076      -1.49021406786396      -0.03947445747259
H         3.69385967631176      -0.28868412403742      -1.64141513493556
H         4.04779903586296       0.96049542297885      -0.37696076415930
H         4.56669648308072      -0.74959087486045      -0.13136390487540
C        -5.19265655274527       3.27280878454404       1.73662161510565
C        -5.13539073192960       3.61248802059527       0.28110253836203
O        -5.85960920952105       3.02930368532565      -0.50938407331014
O        -4.36481011346532       4.46908632910723      -0.12158860582157
H        -6.21284553226520       3.47342085804927       2.12628531133233
H        -4.95267241730524       2.19810551604678       1.87802732805696
H        -4.46263314501596       3.88259856279686       2.31104773345550
