29
C7H16BF4N optimized with ADF in AMS.
N         0.67730468378209       0.01605178669376       0.16581715625680
C        -0.06713759813555       1.27017620452340      -0.27999793266852
C        -0.08325375787032      -1.21890395658434      -0.30485307067814
C        -1.52246261717950       1.28002269149657       0.14400121397569
C        -1.53823578657218      -1.21843145477176       0.12095754607212
C        -2.25630597694194       0.03995156692219      -0.36111004958194
C         0.85643324435231       0.00026109445257       1.65693546767609
C         2.02571804957134       0.01426511155345      -0.47294310554098
H         0.02656985309196       1.28435289389456      -1.37928596258388
H         0.49455660968510       2.12060367461925       0.13632629706853
H         0.46807374894693      -2.08522974773505       0.09209123242889
H         0.00840386797145      -1.21103737585690      -1.40438954683672
H        -1.96768861711215       2.19946368282690      -0.27320052503210
H        -1.61372558246904       1.35196406298632       1.24058794284183
H        -1.62967632938826      -1.30877654016028       1.21625290613563
H        -1.99555705062430      -2.12425198371526      -0.31257982680411
H        -3.28181217935559       0.04296194379530       0.03578055304859
H        -2.30954118483113       0.05013401888885      -1.46756564637121
H        -0.10784515667949       0.00052060550034       2.17587923275203
H         1.41494975991363      -0.90701700790061       1.92051377340816
H         1.42551319074746       0.89540796814455       1.93829985216477
H         1.90949570024244       0.02346433233144      -1.56403047611312
H         2.57208056426783       0.90768550187075      -0.14444553102595
H         2.56341335772045      -0.88942677500689      -0.15849125939568
B        -2.26294871129887       0.01746766601455       3.58799890072632
F        -1.43031140886936      -1.14600559209906       3.37620338293374
F        -1.42024082705861       1.17480652724723       3.38297096738904
F        -2.79937265136267       0.01640226915802       4.87340199053391
F        -3.27356782784404       0.02431697591016       2.58532726562020
