50
C14H15F18N2P optimized with ADF in AMS.
N         1.97108113347567      -0.36257685587041       1.18248121716744
N         3.10887969337970      -0.89913125046518      -0.58415762614668
C         1.57638887806357       0.32496470653929       2.42227177966977
C         0.55225092868079       1.42486419387626       2.15076382222884
C         3.12604795797723      -0.16564977514630       0.53574308997550
C         1.18956281646873      -1.23577007171573       0.45155830893684
C         4.18130730563189      -0.91622335996665      -1.59596038851113
C         1.90650109404822      -1.57384113546589      -0.66017651075476
C         1.08329359991185       2.51720442705475       1.22822562204578
C         3.82021514676260      -0.06554384862632      -2.80252440775832
H         2.49808932185938       0.74208935916407       2.85202678182125
H         1.18931646918532      -0.44325672781958       3.10884509456902
H        -0.36949831681178       0.97703876350831       1.73821872386475
H         0.28033606055329       1.84857466568817       3.13224515267384
H         3.93165625778651       0.48799659347167       0.85090970947083
H         0.20952748189402      -1.54886045383310       0.78898835943857
H         5.08324168410003      -0.53504852308600      -1.09873836970216
H         4.34895226529847      -1.97045675668820      -1.86361892713662
H         1.67604531290458      -2.24317025727955      -1.47986290037708
H         1.31878938231312       2.12460048309677       0.22772018949140
H         2.00371147431877       2.96418903675622       1.62938011160328
H         0.33930158243027       3.31623360245975       1.10150941753844
H         2.90429126410186      -0.42581253421300      -3.29373361624930
H         4.64340702024254      -0.10989850130789      -3.52983688043674
H         3.68418697607643       0.98214063606919      -2.50334055980535
P         5.99078297346170       2.52240470901296       1.14922671269507
F         4.44352133573630       2.28827913186764       1.82356331913484
F         6.09635513517500       4.00363993076074       1.86893561278736
F         5.87233408839362       0.99223455301622       0.39166828983187
C         6.69649805299083       1.61353421443580       2.77123472139740
C         4.98400370577982       3.27429522510701      -0.40277176094896
C         7.79774577950533       2.83241034674593       0.36554089402680
C         5.72263591913826       0.77297575247913       3.66539781374095
C         4.44070962901826       4.72975340709290      -0.29749273454481
C         8.45769657139865       1.81628273347959      -0.61875821066812
F         7.25053559314582       2.51619359749118       3.64611707363839
F         7.67782120014622       0.71278934032786       2.41964981865371
F         3.84341621802929       2.49516540401980      -0.61599025546372
F         5.67217196985632       3.21501055726232      -1.58807598496531
F         8.70472978437950       2.97259360964084       1.39194773604670
F         7.77964560167665       4.03741808471404      -0.30021282332929
F         6.43795054519850       0.13564354886343       4.62822491541411
F         5.07261060539330      -0.19387348706513       2.94881574532254
F         4.79263001701409       1.52961117231509       4.29224628052174
F         3.65910249478789       4.89118377222645       0.79630465485695
F         5.43414036912132       5.63829055375806      -0.26698122199667
F         3.66952153637397       4.99663847474235      -1.39521719017213
F         9.64421166618135       2.32691508540152      -1.04947304859276
F         7.69525827649456       1.58007016498198      -1.71523028387294
F         8.71164028445036       0.63008819932161      -0.02283326513113
