42
C12H21F3N2O3S optimized with DFTB in AMS.
N        -1.22274604849802      -1.94536170678377      -0.23301810540251
N         0.90943017600336      -1.97508369354102       0.05384410453503
C        -2.64367072820944      -1.80932642393771       0.07660156269361
C         2.20112691796822      -1.88229303492379       0.72998838576827
C        -3.13873288923776      -0.41283992540673      -0.30949369839825
C         2.85216211149522      -0.52495835990259       0.45124827079895
C        -0.26059592178849      -1.96605600234268       0.68292337998229
C        -0.65548107280769      -1.93847377110156      -1.47989309806697
C         0.69213341292476      -1.95813853410739      -1.29872276974320
C        -2.41574991869501       0.69140213599775       0.46837944327860
C         1.98999485979493       0.64148186577283       0.94514863080950
C        -2.95419380779311       2.07076207901257       0.09810844476874
C         2.68582263612387       1.97978863359206       0.71168069753552
H        -3.19107452735446      -2.57966506481052      -0.47349794016568
H        -2.75606399888140      -1.97230249307515       1.15173429941678
H         2.01188787693004      -2.00352022364689       1.79986969950636
H         2.83684089766810      -2.69699932838330       0.37225389558529
H        -4.21050017944105      -0.37601363046227      -0.09357704919599
H        -3.00657808929166      -0.26452268295439      -1.38664797992294
H         3.04294396303799      -0.42483489509069      -0.62261341830467
H         3.81689571715182      -0.51517169152292       0.96678875157968
H        -0.40551188884154      -1.97429932576446       1.74924861492079
H        -1.24428260631157      -1.92635429043955      -2.38035441176697
H         1.49800754132098      -1.96639973358153      -2.01152634346157
H        -2.54296041947950       0.52125966734083       1.54079538259490
H        -1.34376992380523       0.64844101156480       0.24844485931826
H         1.03071654387067       0.63324728557394       0.41671876217904
H         1.78458594233487       0.51345031399131       2.01132997921086
H        -4.01869018054039       2.13989960012086       0.32563845383916
H        -2.81203669738766       2.26849838170548      -0.96588186071890
H        -2.42737606654829       2.83591431193536       0.66779510419921
H         2.88225463306803       2.13335858579860      -0.35096094523241
H         3.63391949923469       2.01711549917845       1.24962180360113
H         2.05211139689475       2.79108009052182       1.06923993371307
S        -0.67532029412509      -1.00337435073524       3.98546257846063
O        -1.79457546573955      -1.05255350315704       3.04501425324092
O        -0.83406460360642      -0.10545626164761       5.09382482954256
O         0.62469529573761      -0.96202325433448       3.31645341442746
C        -0.68685075188677      -2.72319202957760       4.67761009254982
F        -0.51679522998641      -3.57056502433801       3.64714668250375
F        -1.83489092248425      -3.02693977118624       5.26620408504789
F         0.29932761188079      -2.93059102005150       5.53861723667199
