26
C8H15ClN2 optimized with DFTB in AMS.
H         0.80415354503489       0.97990885885925      -4.33834692950535
H        -0.61661388719656      -0.06474574217551      -4.61832506986567
H         1.02480634238731      -0.75357938846630      -4.73847633096174
C         0.39823846053998      -0.02913796463261      -4.22194171164220
H         1.69758659736530      -1.19627587959273       0.04541508735093
H         2.06573578025953      -1.66082364089126      -2.64194709594145
H        -1.22444964045154       0.91776636295303      -2.13547314715638
N         0.37780060233331      -0.33755884044762      -2.80356407867586
C        -0.29982485555591       0.41358571220222      -1.91893497725023
N         0.08036635705600       0.03027037439056      -0.68876132932943
C         1.16709044221792      -0.81366946468122      -0.80781058578347
C         1.35120190757332      -1.04285084521759      -2.12700920440063
C        -0.29091394276002       0.80419547604709       0.49207268126219
H         0.35646817464565       1.68952199870145       0.51552484553840
H        -1.32351932641861       1.13725772988028       0.34862530901563
C        -0.16963228008608      -0.01322510974892       1.77383857978479
H         0.87954909175728      -0.26073245959336       1.96124827829369
H        -0.72421709136860      -0.95099551907041       1.66292142982087
C        -0.72230518970081       0.77939592454924       2.96328542846561
H        -0.17615412855409       1.72407720128894       3.05379134962010
H        -1.77622331369151       1.01743938611129       2.78413150430671
C        -0.59292325800322      -0.01034903514356       4.26404530515553
H         0.45372307055543      -0.23754669235722       4.47130244606198
H        -1.14587729371998      -0.94861246608705       4.19914519194942
H        -0.99291720910028       0.57209898318467       5.09412454938460
Cl        0.75623248148128       2.52209268313736      -2.14628221079800
