58
C16H22F18NP optimized with ADF in AMS.
N        -1.09028085088426       0.36004678285348       0.93175517139403
C        -2.15896854486281       0.53098017470347      -0.12808297427152
C        -1.54127231098055       1.34316659381655       2.00300184207495
C         0.27081509111582       0.71269255634402       0.38217267788228
C        -3.46991810317872       0.66559716248059       0.64584828041220
C        -3.06394230809376       1.21869059498493       2.03726145920491
C        -1.11976873594917      -1.04934324320206       1.50805054975088
C         1.39631677077247       0.62067085366875       1.39618251944624
C        -0.63268446122051      -2.13039789882643       0.56907409562924
C         2.72649746521029       1.05527390285439       0.77647242699425
C         3.86411757991017       1.00288308987939       1.79437465742013
H        -2.11477020477170      -0.30761174020476      -0.83393901320965
H        -1.90943738610098       1.46011855417116      -0.66278004470335
H        -1.06246567577457       1.09877343765459       2.95609062671612
H        -1.21461522569300       2.33537473175267       1.65577955369924
H         0.44781122336291       0.04902347982378      -0.47825616867921
H         0.17774046722417       1.74102663681404      -0.00274447693480
H        -4.15417061187262       1.33725901398535       0.10850669040405
H        -3.97701746766126      -0.30583185180096       0.73900813121822
H        -3.36971269297918       0.54511782610326       2.84930538697996
H        -3.51265487783326       2.20010882383148       2.24332938765585
H        -0.52216492592029      -1.01630867872667       2.42325645601092
H        -2.15454473201800      -1.22953335971573       1.82378302674099
H         1.17822519975533       1.25846985079433       2.26720446477473
H         1.49718694039508      -0.40646845597037       1.78000195718542
H        -0.77059782080477      -3.09131826188047       1.08701493513605
H         0.43731976390825      -2.03760808799151       0.33706449511045
H        -1.20025244891764      -2.18187940280877      -0.37110176835797
H         2.96426959280693       0.40472131696208      -0.08485976480313
H         2.62915127448165       2.08156577069129       0.37813383179776
H         4.00352951446464      -0.01895590184265       2.17810128583606
H         3.64883519042375       1.65249241465175       2.65687664686831
H         4.81184050906514       1.33342140458164       1.34519840879426
P        -1.47602256534764      -0.79956063197873       6.02228272630465
F        -3.11351318863767      -0.77743320437323       6.30114934488884
F        -1.07377677282049      -0.96171062577809       7.61619401357941
F        -1.79943047512575      -0.65503426117478       4.35828486757122
C        -1.72699256602040      -2.75422159492212       5.93573670009641
C        -1.59439650642502       1.22007244879253       6.30111959568802
C         0.49672658670423      -0.68154662656839       5.50037053611956
C        -2.50167764976623      -3.36775540259779       4.72744033689286
C        -0.50212835974888       2.14324238899653       6.94785677755773
C         1.41904281894201      -1.77524322614626       4.86686011254684
F        -2.44025568177542      -3.14791160340892       7.04314758897326
F        -0.53306396200309      -3.44472054049584       5.98626001853870
F        -2.66336507198305       1.42320430086503       7.14223324113914
F        -1.91349482165165       1.85036458740662       5.09870389276639
F         1.22375615051707      -0.23794019413962       6.57632124591291
F         0.54405061849953       0.33254469815463       4.53325295305087
F        -2.72145365621924      -4.69188566130917       4.95302151789553
F        -1.78706682734095      -3.28126366711468       3.56579892090563
F        -3.70050996847666      -2.78057146283681       4.51964726588278
F        -1.06460707214911       3.36814174223931       7.17890595904561
F        -0.07361516868241       1.65891871196176       8.13097095157963
F         0.56941127364887       2.36123469054506       6.14693024117942
F         1.85439378998119      -2.67649680005834       5.76268706421972
F         2.53139705720514      -1.16884539748556       4.34232369514934
F         0.81193653739607      -2.42195541480573       3.83200816063764
