52
C14H18F18NP optimized with ForceField in AMS.
N        -0.28846014351634       0.33107211525288      -0.06873192919906
C        -1.32819030040658       0.55681676618170      -1.10124046294354
C        -0.73695070685029      -0.89773658123150       0.62248026650094
C        -2.64168300178567      -0.01374220838022      -0.57087576476554
C        -2.25882114289974      -0.89258812143813       0.60790361704135
C         1.04521921843958       0.15658781592701      -0.71872216623086
C        -0.27477731977833       1.48173615061726       0.87339817699628
C         2.20318244840406      -0.10364316405358       0.27068101848817
C         3.49873529127066      -0.41767809601681      -0.47293236811017
H        -1.08488937416889       0.01764635367245      -2.04654244255915
H        -1.43847136111596       1.63411525321245      -1.36437327327299
H        -0.35289947178371      -0.96705094682672       1.66532970855304
H        -0.39340450409025      -1.80721582544475       0.07649957977638
H        -3.15774405900411      -0.60921245675291      -1.35599793768586
H        -3.31431553391161       0.80696785307602      -0.23825156935788
H        -2.64274019676528      -0.44875506786469       1.55299231930547
H        -2.66436829307381      -1.92206359668778       0.49804507044221
H         1.29201433367427       1.06392147839852      -1.31658421475038
H         1.00924638386967      -0.69467691691669      -1.43752904201838
H         0.12890493630545       2.39397222721503       0.38096738003049
H        -1.29791145080287       1.71943504883001       1.24053365638794
H         0.34462612195612       1.26604248130181       1.76956662171250
H         2.38305199733289       0.79433694273288       0.89792939064830
H         1.96409320007243      -0.96068239650932       0.93437568067647
H         4.31807900566809      -0.57869794933751       0.25916142506854
H         3.38173007610292      -1.33936045629221      -1.08175867990334
H         3.77730195409155       0.42834101121631      -1.13685835299745
P         0.84526902178739       3.96553973496898       5.88059799409206
F         2.45431044985932       3.70214127703767       6.44058596334265
F        -0.05542401936311       4.53827921311558       7.23269770455358
F         1.89593652563503       3.56249263488388       4.57881713930566
C         1.37164140437795       5.81527598650440       6.06508803134889
C         0.71680792762460       2.31082543212467       6.87853337910797
C        -0.51086851562068       3.71989549505525       4.54609679659776
C         2.44315829511312       6.31520003589964       5.07278054077762
C        -0.70141932523403       1.73344263818302       7.13629766355159
C        -0.50324264042967       4.65984252461312       3.32694759317020
F         1.89705213712371       6.01680029692736       7.33693426134529
F         0.26165215338636       6.63743015736530       5.95390576814378
F         1.29846393976326       2.47650015419092       8.13177807681945
F         1.43858231138374       1.33818073004718       6.20455280229202
F        -1.74458273900591       3.84645206225072       5.15919298965196
F        -0.40600093411722       2.43568349840573       4.04218776513800
F         2.67779207317269       7.65860998565274       5.30778484445618
F         2.03592505607310       6.17986064881786       3.76499142441158
F         3.63576429609792       5.63656472379310       5.24467308351907
F        -0.59488005100946       0.69270542848931       8.04232767453218
F        -1.56150887196669       2.67058561882106       7.67648961644734
F        -1.26285750391983       1.21434454343961       5.98827073287703
F        -0.57826387901512       5.98399500833438       3.70122329646602
F        -1.61423057585575       4.38360497595740       2.54946068389571
F         0.61553478720502       4.44907356243958       2.54222257592292
