45
C11H24F2N2O4S2 optimized with ForceField in AMS.
N        -0.82763123947039      -0.19599927583190       0.02462033441211
C        -1.14873012208911      -1.24165354905537      -0.99618637448340
C        -1.98152850360854      -0.21620891173376       0.97507830504663
C         0.42890770192274      -0.55949996342193       0.75760662241690
C        -2.57692936405202      -1.70415395788287      -0.77264441264163
C        -2.80730654394455      -1.45547277976789       0.69096086369530
C        -0.73156811690532       1.14255274565049      -0.64325865915265
C         1.70942178335952      -0.52545772274050      -0.11214117395853
C        -0.38141319717617       2.30956085131250       0.31048062195500
C         2.90373123604536      -1.10812872270974       0.65130686662769
C        -0.47157103492078       3.65111604885515      -0.41071655885584
C         4.17839146111707      -1.03630229971019      -0.18360988957170
H        -1.02750869527767      -0.88604867232644      -2.04478316415095
H        -0.49924002788510      -2.14206132676996      -0.89821061336901
H        -1.67224102214271      -0.20285058284658       2.04493888480747
H        -2.65685545192162       0.65937634797820       0.83474284178472
H         0.32209377969775      -1.57992901838126       1.19398439262296
H         0.58356566875029       0.11545845407981       1.62836334960089
H        -3.27417760056659      -1.08195437043797      -1.37646773508495
H        -2.71411486214084      -2.77700411102273      -1.03049489648811
H        -2.42060316985311      -2.31178675150286       1.28666265448163
H        -3.88528174836848      -1.29963446130367       0.91435933518142
H         0.02688615372410       1.11849600064759      -1.45500678836382
H        -1.69703194826237       1.37547719226142      -1.14996425090840
H         1.56296014483150      -1.10384515644483      -1.04816915468296
H         1.95298408832642       0.52162558374390      -0.38850771746589
H        -1.06938111039445       2.33067636913481       1.18053167101945
H         0.65452469843139       2.20179141368646       0.69207569848213
H         3.06009029847837      -0.53959104217278       1.59396951424346
H         2.70226679186217      -2.17042319138952       0.90974244298984
H         0.23793601379639       3.67755374484245      -1.26447638040101
H        -1.50334850647066       3.82134119938699      -0.78441342641072
H        -0.20993914926259       4.46934125373679       0.29268699544649
H         5.02297853872989      -1.47616517435781       0.38662034571694
H         4.05242434646438      -1.60546519605921      -1.12914645081559
H         4.42278801139843       0.02105955545872      -0.41995046393327
N         2.02750333253386       0.90144775451454      -3.63181215342651
S         3.54756778133842       1.50155813548053      -3.55345818704884
S         0.84574830852384       1.68596744299711      -4.44659062703391
F         3.60640767958662       2.68803451324805      -2.37473451499918
F         1.18128325321364       1.63633524783689      -6.08555848944681
O         4.50460253642626       0.39961722898441      -3.19873845314304
O         3.93743989866565       2.10479845458515      -4.87421492589425
O         0.78670735216464       3.12181530902659      -4.00628112135791
O        -0.47520114037562       1.02005792442119      -4.18526067164213
