40
C12H25NO2 optimized with ForceField in AMS.
N        -0.51049715740640       0.00303160241714       0.01490255684291
C        -1.44092659781459      -0.56313005929388      -1.01029238370098
C        -1.40115497549389       0.60183793714282       1.05638740562750
C        -2.84289406581883      -0.07340839265703      -0.70206537427514
C        -2.82190585635097       0.14746993427074       0.78397223409571
C         0.33688882227433       1.06793336341909      -0.61417628308372
C         0.30933292587656      -1.09180759765152       0.62948058937247
C         1.36765859095944       1.71311562227546       0.34313249495044
C         1.30285130215449      -1.77046021195405      -0.34409731609665
C         2.06470559715608       2.89499327576206      -0.32241881215089
C         1.96255986273338      -2.98350847979789       0.30500092426291
H        -1.16658938703938      -0.28967586992785      -2.05486527557235
H        -1.47570274329790      -1.67661316744418      -0.97919652093672
H        -1.10968446169744       0.32968588950627       2.09659740452248
H        -1.40720956015085       1.71564377098590       1.01591554293446
H        -3.03028508061470       0.89042662218697      -1.22539715024127
H        -3.61712008838429      -0.81595660740282      -0.99443025977497
H        -3.01998592251767      -0.81148178932218       1.31225056155606
H        -3.56963791632915       0.90924617920273       1.09521370073540
H         0.88377234917069       0.66323959482685      -1.49456691196202
H        -0.31911790830652       1.87244777085890      -1.02214604004593
H         0.88387050508050      -0.70796852032800       1.50151527326529
H        -0.36781644570083      -1.87364830873612       1.04666639076079
H         0.87774029971185       2.07115512882843       1.27212930538339
H         2.14936867541788       0.97808920656389       0.62499539092607
H         2.10824668230547      -1.06364969578391      -0.63180817184067
H         0.78826453074026      -2.10297223578949      -1.26928363299698
H         2.59649597094342       2.55908434394744      -1.23822457615028
H         1.32520177635200       3.67867336303930      -0.59237558740929
H         2.80656726952520       3.33421742139813       0.37766522527192
H         2.51847562722232      -2.67736069530245       1.21695544858280
H         1.19680205497971      -3.74039625715170       0.57778347983439
H         2.67779329598752      -3.44412429407649      -0.40890365676516
C         4.16375573627798       5.42074759192151      -2.13458569275692
C         4.01422555640106       6.63558635098318      -1.27474882071972
O         3.17471811679361       7.47730594331353      -1.55042579363128
O         4.72832218902225       6.79017874635857      -0.29705283595249
H         3.20949230423038       4.85615838086622      -2.14772017748717
H         4.41652372818191       5.72526270658277      -3.17141349393258
H         4.96865287822512       4.76057681486168      -1.74622456004179
