26
C8H10F3NO3S optimized with ADF in AMS.
N         0.40065879432662       0.23276355483517       0.09776841707243
C         1.85734542432397       0.22342619875279      -0.21039148475504
C        -0.15435343111197       1.35044990019944       0.61256511478137
C        -0.32204741936674      -0.90478354466217      -0.06199069824788
C         2.61647445099934      -0.70535828141063       0.72139316749738
C        -1.50933945223817       1.36552667985641       0.93303558387762
C        -1.65858536154946      -0.93669316269584       0.25939786346386
C        -2.26640594442675       0.22173210565848       0.76482603816729
H         1.95731876930020      -0.06362377971412      -1.26991762290965
H         2.20208242769827       1.25788503900443      -0.07450572079744
H         0.50433175674786       2.21707370806761       0.70278140969775
H         0.21589908861485      -1.76374786405393      -0.45708258711111
H         2.42025129511212      -0.42527286956126       1.76623464936138
H         3.69305928963362      -0.59776411384483       0.52299239065927
H         2.34719710873011      -1.76123767857303       0.56652859293072
H        -1.92644430887148       2.28088108788734       1.35234124973337
H        -2.22181878000832      -1.85840839739082       0.11631372869342
H        -3.32455922584105       0.21429319157505       1.03020103045473
S         1.72828788686994       2.40318495840906       3.02636803428726
O         2.76714530763713       2.25789014236690       4.04001545415721
O         0.77469871903024       1.26116640766357       2.91541248549940
O         2.14986669154947       2.91910141807785       1.70088369966919
C         0.62992388624899       3.78209587481042       3.66979885663761
F         1.33461845656184       4.92036733800784       3.87030799987912
F         0.03168427925541       3.44056508674398       4.83762721841185
F        -0.36550376382605       4.06309276929029       2.76431748418890
