41
C11H21F6N2P optimized with ForceField in AMS.
N        -1.11885101815550      -1.73349176295926       0.23047623117276
N         1.10295777149436      -1.70239825548311       0.30469790975826
C        -2.51311833477777      -1.46171307041676       0.57435405359588
C         2.46262960128933      -1.39079214377884       0.74210514822083
C        -3.01401886652236      -0.18886504615957      -0.12233540930767
C         3.04628939028475      -0.21724229783261      -0.05811836716502
C        -0.03542703082404      -1.44449187020143       0.97710761526711
C        -0.65139686648460      -2.19663651408748      -0.94635153641980
C         0.72788539593705      -2.18093749221678      -0.89902465582795
C        -2.24142121222638       1.05621524281289       0.33858896976677
C         2.19550298339410       1.05373041789204       0.08483479110926
C        -2.81482723310493       2.32866714901482      -0.27643196591902
C         2.84367744410785       2.24190831525647      -0.61752649356346
H        -3.14124596110329      -2.32498222808060       0.26537883798565
H        -2.61776554941196      -1.34966716414290       1.67600095417953
H         2.46445656070750      -1.13541797536792       1.82483711892422
H         3.10452676056922      -2.28762103010378       0.60711605436362
H        -4.09285220026425      -0.06179811217549       0.11463603039953
H        -2.91607702183209      -0.30567807351336      -1.22381776240400
H         3.11799625897494      -0.49964703840155      -1.13097986525969
H         4.07539350644504      -0.01861830462802       0.31292847443922
H        -0.07492716913803      -0.99176603813451       1.96031037769997
H        -1.26633125521886      -2.49064302147259      -1.78705491191402
H         1.40536591536709      -2.45988331407359      -1.69554328824970
H        -2.28445178945805       1.13945263445017       1.44634715712015
H        -1.17819013466566       0.97074445100170       0.03423271113669
H         1.19496389584977       0.88575273790353      -0.36494000829976
H         2.06088458426914       1.30061771698633       1.15893031249598
H        -3.86749320011331       2.47265495231176       0.04488258701602
H        -2.77054958623706       2.27536492771112      -1.38508107146121
H        -2.21780702056266       3.20259154614173       0.06051458543311
H         2.95766007964723       2.03243408348073      -1.70234085968872
H         3.83908622004736       2.45672481739342      -0.17570065806177
H         2.19975592266566       3.13862456640025      -0.49494561314485
P         1.75482803484452       2.19530277239930       4.97006444443742
F         0.63700692042089       1.02566762269943       5.54789093590234
F         3.02009771613649       1.56355669413653       5.94551493329569
F         2.22929427881692       1.08831115718123       3.74619369519388
F         2.81609014258277       3.39174726584163       4.34196695138268
F         0.52336824997840       2.85207186313996       3.96770646940224
F         1.31977547317041       3.21981923907514       6.27896437818782
