67
C19H28F18NP optimized with DFTB in AMS.
N        -2.09518072783990      -0.34647796023723      -0.08292892982391
C        -3.03139585283277       0.03117657720241      -1.19510072382865
C        -2.76514287113217      -1.38170152881441       0.77680935003487
C        -0.88515499748798      -0.97206819480875      -0.73748707546143
C        -1.71460272959436       0.82937821928406       0.76769643968026
C        -4.39163324989837       0.50776965456109      -0.70203807189083
C        -4.13165517757476      -0.96208898195743       1.29853842536033
C        -5.05974809172054      -0.56740763039187       0.15334033615577
C         0.18864385820512      -1.47676720625457       0.22153693244985
C        -0.93192663900110       1.91962668378519       0.05096606457619
C         1.32048007633829      -2.10555449149893      -0.60176307179957
C         2.32929925437044      -2.81248367677031       0.30770622005829
C         3.44465052171005      -3.46560787604001      -0.51404400367404
C         4.43311291838944      -4.20626054272474       0.38436737318978
H        -3.15917469902775      -0.86492033724646      -1.80666958028754
H        -2.54300754808561       0.79704370648287      -1.80033036550227
H        -2.09765883116394      -1.60469961894182       1.60908140534804
H        -2.87067624532438      -2.27096566556221       0.15749115275937
H        -0.47119362653229      -0.22836626230676      -1.42238120620171
H        -1.25773839452447      -1.81108085248070      -1.32771056229675
H        -2.63642195153500       1.25013513280386       1.17245193397726
H        -1.12665056339846       0.43816614665641       1.60086948697394
H        -5.00214993677416       0.71420923776739      -1.58509796949066
H        -4.29746543604084       1.44107643340820      -0.13921112664944
H        -4.04283047327887      -0.14196718891879       2.01719970501402
H        -4.54177177795344      -1.82721083499627       1.82649707334895
H        -6.00358514671182      -0.18930582583285       0.55233174391300
H        -5.27466732839232      -1.44395064141416      -0.46363554768016
H         0.58618722164742      -0.66243680693205       0.83369423100519
H        -0.22757192503674      -2.23926228225721       0.88248538246254
H         0.03909493765896       1.56541940194029      -0.28918769629695
H        -1.48115826777588       2.32318841618679      -0.79773389202100
H        -0.76731322784139       2.72705888103691       0.76442477595674
H         1.82170741775555      -1.32974433051255      -1.19059683418252
H         0.89037957782102      -2.83315284889358      -1.29515853587407
H         1.80909325188515      -3.58094724868553       0.88799237989730
H         2.75941637391650      -2.09096112921733       1.01152699409469
H         3.00211808725478      -4.17056973371154      -1.22445681155841
H         3.97484208370843      -2.69736354224832      -1.08788627143871
H         3.92349630055102      -4.99126304406857       0.94427583893526
H         5.21635400250893      -4.66374030837413      -0.22040009953351
H         4.89767938843647      -3.51912792533510       1.09355923185103
P        -1.92661615351987      -5.53466992015803      -0.48142785256492
F        -0.88198641967409      -5.82187607096782       0.79662108109949
F        -2.32889411235427      -7.14388202152823      -0.55212375409351
F        -1.55555176979128      -3.84096677972681      -0.43171710010363
C        -3.29959247432665      -5.17833858960355       0.88385891479652
C        -0.35415430894446      -5.75440831796539      -1.62969013870474
C        -3.20220828919949      -5.20396859635099      -1.99614721982789
C        -2.82508400621093      -4.80013312887965       2.31296573821368
C         0.11394329914485      -7.19187921641102      -1.97475581495680
C        -3.38858125950481      -3.79988876554175      -2.63759854658747
F        -4.15439031194335      -6.19786814330438       1.02433917419122
F        -4.03032822975428      -4.10246994269548       0.48154726717945
F         0.69408342610678      -5.16097950583975      -1.02173542394200
F        -0.52787831609285      -5.10003473101396      -2.79410844917373
F        -4.43534653414059      -5.57830976755571      -1.60246981211792
F        -2.85057683478147      -6.02902785453216      -3.00112986891997
F        -3.85262321395281      -4.29303201091065       3.00855466487157
F        -1.88715204119279      -3.84036866169231       2.27536398001204
F        -2.34646220066455      -5.83053827275519       2.98708302311607
F         1.25704056989257      -7.14185676604729      -2.66641108487330
F         0.33814162176373      -7.89397630648093      -0.86928807293311
F        -0.78071528717856      -7.83523789409616      -2.71435123069850
F        -4.04248311027153      -2.96830099906101      -1.80567388640511
F        -4.10181515617080      -3.87305909464942      -3.75657749525773
F        -2.23640543051673      -3.19160949551358      -2.93436936117023
