37
C9H20F6NP optimized with ADF in AMS.
N         0.33490167664914       0.18539715702126      -0.67701736756218
C        -0.94249099403022      -0.60986490981569      -0.52447358211392
C         0.24555428321598       1.16855484240096       0.48251721958648
C        -1.10493271110333      -0.82095836617611       0.98022999312111
C        -0.34577225717293       0.36220896658098       1.63798547964449
C         1.56073176254431      -0.69984632483315      -0.48632770647054
C         0.35777589453775       0.89986745363643      -2.00897852925889
C         1.79643688621247      -1.73145419647115      -1.57534357735811
C         1.57732234116669       1.77236524543323      -2.22201852978295
C         2.99643036437750      -2.59944288843709      -1.18233939724525
H        -0.87600454519403      -1.52823388519728      -1.12000124475787
H        -1.74668561307831       0.02381468737603      -0.92848403529122
H        -0.43740722018094       1.96391362809358       0.14489868239340
H         1.24439941592646       1.57444412347035       0.68851927264459
H        -0.67880024505080      -1.78543423997219       1.29338155907379
H        -2.17287322304521      -0.83651155768292       1.24275574553893
H        -1.01054578127566       0.99980368042837       2.23753745038831
H         0.46010898754411       0.01085387750391       2.29668734510674
H         1.44162263265934      -1.17819404594149       0.49500785512234
H         2.41735704148047      -0.02249255681055      -0.39185593943220
H         0.27307983404183       0.12025767853799      -2.78077710522520
H        -0.56517875133623       1.50042394510411      -2.03152033178961
H         0.91235832097981      -2.37560679899150      -1.72712813573938
H         2.01044201001587      -1.23461099944422      -2.53672724505167
H         1.67908146103441       2.53800405688364      -1.44128391624231
H         2.51085873313017       1.19491705669956      -2.24258058517542
H         1.46713042267132       2.28071867809915      -3.19168363932986
H         3.88537657846484      -1.97661755949127      -1.00484110611838
H         2.79169040617562      -3.15254294940921      -0.25247402581861
H         3.22321547821472      -3.32818601994831      -1.97326303504860
P         4.22295123286134       1.13680298818845       1.61292444689963
F         3.83193195487649       2.38410297271908       2.60664599268261
F         2.82383664094551       0.33555572113057       2.09710406134164
F         3.30976178460295       1.86760146404738       0.38042319341836
F         4.52612764945986      -0.12232638352205       0.55893723999859
F         5.55363112350695       1.92219067965029       1.07695645064095
F         5.06648841057173       0.38518716373887       2.79266002221018
