29
C9H17ClN2 optimized with DFTB in AMS.
N        -0.06656019274355      -1.41193851740228       0.26103809485016
N        -2.00659206368840      -0.51192390344941       0.07205957155393
C         1.27882366379356      -1.65153177605331       0.77503504912420
C         2.30886961470163      -0.87682815918669      -0.05130035309044
C         2.07463286578682       0.63632235213576       0.01345220224498
C        -0.93581470177005      -0.60475875849364       0.85750270231997
C        -0.58837745881051      -1.85104596760097      -0.92717576743589
C        -1.81755167501095      -1.28148122337632      -1.04611392792905
C        -3.15268959136819       0.34488636097900       0.36686722316744
C         3.18122041336278       1.39659558936560      -0.71292236695558
C        -2.68960699777563       1.78260283705534       0.57888374852021
H         1.29030126169966      -1.30910976007355       1.81393646005879
H         1.47802618767338      -2.72580265958061       0.73719535734829
H         2.27704096825881      -1.22052352862948      -1.09070097442173
H         3.29662954110196      -1.11610600485141       0.35330856237980
H         1.10873593148321       0.87410259048432      -0.44443694471498
H         2.03289237336858       0.95214568100989       1.05994675411703
H        -0.71792099423506      -0.05166377427564       1.78905421102035
H        -0.05859478217158      -2.52349068555290      -1.57884757998244
H        -3.84767308308718       0.27339506850102      -0.47364618114020
H        -3.64278929966680      -0.03928035389407       1.26699904629658
H        -2.56004517755581      -1.36349746221978      -1.82066978263602
H         3.22475180273045       1.10589398784866      -1.76420739009017
H         4.14990107127566       1.19190442371350      -0.25525429954507
H         2.99017732109128       2.46788749169192      -0.65551452855233
H        -2.01782251303499       1.84904587012167       1.43446987181338
H        -3.55867538405879       2.41224970158752       0.76357538830627
H        -2.16868266618505       2.14594429212112      -0.30625763778401
Cl        0.29152476813476       1.01898828042476       3.02109999475652
