61
C17H24F18NP optimized with ForceField in AMS.
N        -0.58672878995417       0.09630623078006      -0.09182154140534
C        -1.58756660106661       0.55989738589783      -1.10814655381045
C        -0.94311767960562      -1.29610826402143       0.33881139811765
C         0.74376734574749       0.05633367170884      -0.79170641677555
C        -0.55045917323305       0.99932637562769       1.11084406479768
C        -3.04895744738974       0.47278674327057      -0.63797636497502
C        -2.39756930928391      -1.45332565841796       0.82559687543844
C        -3.38838626396827      -0.95347836703284      -0.21975931560960
C         1.95778607006969      -0.33477304855341       0.08672231520263
C        -0.10964458035737       2.45074798705630       0.84561780809855
C         3.22693184152194      -0.44696580638070      -0.76733197331763
C         4.42227141299680      -0.88509253057631       0.07239403326032
H        -1.51060619185133      -0.06207494289202      -2.03061635893453
H        -1.37949293741135       1.59812024230576      -1.44042394961519
H        -0.29213276444853      -1.63506707002518       1.17288412998585
H        -0.79268483027306      -2.01403061475852      -0.50029255924634
H         0.96251080394196       1.03847625177345      -1.26714725114440
H         0.69966366496932      -0.66654028712404      -1.63946203073822
H        -1.54237683193946       1.05702198506076       1.59910905227002
H         0.11897003703473       0.57803483990153       1.89194877722313
H        -3.71524780983158       0.76620999776648      -1.47770271144294
H        -3.24832612750790       1.18080481623863       0.19270163439773
H        -2.55453489662615      -0.91999908607766       1.78644070927035
H        -2.59677017485164      -2.52944977725480       1.02151244690741
H        -4.41751568183501      -0.98447735498471       0.19814106349161
H        -3.35743217524023      -1.62093858809075      -1.10944109377725
H         1.78736626663048      -1.31443461353121       0.57610271480593
H         2.13420414783756       0.43151671398059       0.86993828041002
H        -0.10559963949260       3.00268849047020       1.80884139812634
H         0.91843138493877       2.50699039309377       0.43705148242550
H        -0.81669038696775       2.97843527184126       0.17575884897201
H         3.45456647038400       0.53648540290301      -1.23368055987931
H         3.07045855027863      -1.19264778063817      -1.57724861634023
H         4.22145058659183      -1.86657834130843       0.55183592048407
H         4.63732595580433      -0.13000873539404       0.85743229678751
H         5.31323192003719      -0.98924581318478      -0.58152184846268
P         8.94765569441473       0.67389269675434       0.22933801317486
F         8.69898296899124       1.54265987643343      -1.23744954138391
F        10.57713489493509       0.80805305774880       0.77581493371896
F         7.23597869341949       0.70913435947301       0.07071766028724
C         9.04679348230199       2.49593760440373       0.88408762016191
C         9.61800954381500      -0.44171196808503      -1.20792427225296
C         8.41861975231944      -0.63836143760105       1.54221101336428
C         7.77329769842182       3.36905718078181       0.73684572990210
C        10.32257030956438      -1.75788030307866      -0.81142252750697
C         7.73474507952378      -0.13263676219284       2.82469898052999
F        10.06241223456063       3.16137154811073       0.20883388038941
F         9.39060739260675       2.49862414149374       2.22254171966296
F        10.55467306561525       0.27097349375246      -1.95163888805087
F         8.56427386520821      -0.78226521395199      -2.04553475619676
F         9.54774264196531      -1.31696645456584       1.96442488992053
F         7.56664630068522      -1.56238478949651       0.95573187856618
F         8.03980281987604       4.63104516063322       1.23810372752457
F         6.71460062666932       2.85042583595117       1.45097442691153
F         7.39463128084226       3.51469301338378      -0.58523311868162
F        10.87439464695776      -2.32530753368363      -1.94687941404924
F        11.34840156648114      -1.53207390943428       0.08695112708109
F         9.43498669985829      -2.67710482202824      -0.28890344500434
F         8.60906753592370       0.60734412768304       3.59433379735461
F         7.34565357454660      -1.22801982566296       3.57616379623306
F         6.60569663554719       0.60690064044802       2.55083286184530
