48
C12H22F6N2O4S2 optimized with ADF in AMS.
N        -0.29229219186747      -0.05849295209071      -0.96054298338195
C        -1.39310349215071       0.97796059921407      -1.14150123369769
C        -0.81309478856755      -1.43019389224573      -1.38457613338463
C         0.83958044393616       0.33202698103134      -1.90442437811107
C        -2.69252561550950       0.60033074417098      -0.45109379032529
C        -2.11482515064134      -1.81848483957276      -0.70527781325205
C         0.17476367190570      -0.11971123958984       0.47705770421872
C        -3.19118214905275      -0.76079509598899      -0.93687880905164
C         2.10914934421129      -0.49245719457360      -1.78483687816230
C         0.77647804915099       1.16634516612606       1.00927136786404
C         3.09171356137666      -0.06250753738721      -2.87603260927778
H        -1.55005271901036       1.04324464230939      -2.22729129233583
H        -0.98782515239721       1.93403800970670      -0.78426286910805
H        -0.01038621765407      -2.14790387826626      -1.16982500651938
H        -0.94420120556386      -1.36964243315048      -2.47344893089811
H         1.04017135702025       1.39929547121407      -1.72458975560520
H         0.41570323969261       0.22497098218696      -2.91193925881415
H        -3.42153479578092       1.39041890174247      -0.69677352390140
H        -2.58395995633571       0.60645790010338       0.64838410390502
H        -1.97017644404550      -1.99990966170819       0.37452164860486
H        -2.41603440216012      -2.78383287878605      -1.14502248209365
H        -0.69554849130353      -0.41337161360137       1.07645441252724
H         0.90178411270863      -0.94292051451617       0.52285160195337
H        -4.12377066526028      -1.03796447847301      -0.42124216947072
H        -3.40865942176623      -0.69917118614908      -2.01741691791847
H         2.57638463954171      -0.36516245619852      -0.79351734647120
H         1.88269107627178      -1.56092395044081      -1.92474494243514
H         1.10918855698456       0.98451109730010       2.04224462381242
H         1.65291043095597       1.49083754164906       0.43195665642043
H         0.04904663149737       1.98931377636506       1.04292892451619
H         4.03891862481058      -0.61142217678664      -2.77549059816784
H         2.67236830978089      -0.27826117938471      -3.86866392084178
H         3.31342309421988       1.01468497559924      -2.81442906388355
N        -1.05304712270756      -0.87562575358667      -6.29906987284001
S        -1.65883044700798       0.35465073048734      -5.47916338434638
S        -0.17237978457788      -2.05428339997099      -5.64513695970837
C        -0.32906772969620       1.68821348846843      -5.65202875894174
C        -1.46805545026399      -3.36880123280358      -5.23383980506489
O        -2.79721954293637       0.90923781709625      -6.18900465057899
O        -1.75950441468966       0.16651554483716      -4.02141325591170
O         0.43423982657653      -1.76336275349855      -4.33897752668612
O         0.63206715349651      -2.66983220145095      -6.68504883227226
F        -0.64214431911714       2.74491677199562      -4.84956700449299
F        -0.24078287455756       2.12376557074583      -6.92175695170588
F         0.89185303262549       1.22858475368530      -5.26416106894158
F        -0.86007353656948      -4.41745986757070      -4.61863970139847
F        -2.08537918727855      -3.81895546880963      -6.34289542829697
F        -2.41199514079410      -2.87867550453358      -4.38128417252708
