26
C8H15ClN2 optimized with DFTB in AMS.
N        -0.60851105484678      -0.95158454357149      -0.00600972027447
N         1.51441655539551      -0.57141674621189      -0.17948539885138
C        -1.94385235160638      -0.98297901238946       0.57315680327663
C        -2.89709610820922      -0.04595457961505      -0.17276893468182
C         0.41009423872644      -0.25007397996212       0.51492086898064
C        -0.10890821979467      -1.85195233212364      -0.92334851772631
C         2.84905960473762      -0.16831019205203       0.24261984007314
C         1.21840174115681      -1.61736503086384      -1.02755222667943
C        -2.46467235606239       1.41603384958463      -0.08374544126804
C         3.08401140613678       1.31097171704826      -0.03791607435715
H        -1.84659025503628      -0.69851290172701       1.62519375841375
H        -2.31023836647463      -2.01123689253592       0.51780653698102
H        -2.95310567285927      -0.35056510900795      -1.22246849009170
H        -3.89162437244762      -0.16152285027179       0.26723857652788
H         0.29428919365007       0.64711507296868       1.09405953500847
H        -0.74278159183207      -2.56563401681401      -1.41944369706215
H         2.91901920612890      -0.38101903401027       1.31637660839178
H         3.57360196801617      -0.78262253822637      -0.29722944397523
H         1.97279803587831      -2.08500682546072      -1.63542973539780
H        -1.49749396318840       1.55968499142280      -0.56694359744827
H        -2.38516244426298       1.72890659523795       0.95788408731780
H        -3.19716062082296       2.05003125570689      -0.58287144267995
H         2.97948010616193       1.51872159043292      -1.10298202426322
H         4.09071851864928       1.58068596074672       0.27810900012704
H         2.36931860593167       1.92305975430718       0.51120176213014
Cl        0.78904898237416      -1.29177566041247       2.61413508842861
