40
C10H22F6NP optimized with ADF in AMS.
N        -0.05039103581463       0.09535450720014       0.14384228970662
C        -0.78484424582417       0.61786934744264      -1.07086071893946
C        -0.65764795807874      -1.23051368191721       0.55351493318413
C         1.41019351988236      -0.12209230571006      -0.26473017640719
C        -2.28247034854987       0.74180210341041      -0.84741649989345
C        -2.16989533309908      -1.19045094607896       0.73298081914827
C        -0.12899286207081       1.07974634315665       1.31820450102002
C        -2.88214168536273      -0.61681805695452      -0.48971220805817
C         2.26362772526467      -0.93517408215971       0.69561684450808
C         0.05292762267769       2.53608378081246       0.95268516624177
C         3.70096938586910      -0.98166536530975       0.16946370300777
H        -0.58349591247353      -0.10427850191778      -1.87815692356537
H        -0.31333867577452       1.57193888965592      -1.33988003925800
H        -0.15325010855231      -1.53436997441126       1.47989485388320
H        -0.38468991798305      -1.94350061388200      -0.24256887081912
H         1.84176142008038       0.88144649631221      -0.38268464370493
H         1.36682399998786      -0.61510546863191      -1.25000250004246
H        -2.72592824089467       1.14106980083556      -1.77507297335620
H        -2.49602380984828       1.47810463840825      -0.05479481151908
H        -2.43684684561178      -0.61206209316579       1.63312519734354
H        -2.49532079333523      -2.22601576232353       0.93054217709919
H        -1.10653270239190       0.91591381523254       1.78866239314483
H         0.65804716967125       0.77238087371698       2.02016138182086
H        -3.96308157476211      -0.52839455357829      -0.29772402495000
H        -2.76303503505962      -1.30533110291030      -1.34699043182391
H         2.27833012799431      -0.47025106960002       1.69342624821370
H         1.87781526812052      -1.96446140910095       0.78536202267442
H         0.18092124861832       3.08477433405641       1.89878959944046
H         0.98366033282252       2.71792414027971       0.39996187940530
H        -0.80910397120800       2.95661759008003       0.41495480479595
H         4.32645780576347      -1.56937450245019       0.85626018639969
H         3.75266902488356      -1.44481442979247      -0.82954501974814
H         4.12539725529699       0.03092638980166       0.12994343479980
P         3.52442659224484       2.27406315841660       2.76820009824075
F         3.93044987719129       2.46666292406123       4.33987929926806
F         2.26415229911559       1.24432039709562       3.22691439634103
F         2.47017867225743       3.54655812757924       2.85108249083731
F         3.06730393946194       2.04829836186157       1.15623308606477
F         4.73036067822869       3.26403870469316       2.27527856888223
F         4.50688207636222       0.95317933788571       2.63752247941374
