29
C9H13F3N2O2 optimized with ForceField in AMS.
N         0.06565661146046      -0.63544089622098      -0.44112960082983
N        -1.99364398132422       0.12610195480983      -0.10120547175093
C         1.43923344877735      -0.73890320397310      -0.92803626859817
C         2.44280489758816      -0.40758507247239       0.18202252388220
C        -0.83676326946839       0.31085435172930      -0.76533536184652
C        -0.54149847091473      -1.44522889751908       0.45019356909739
C        -1.82170238048684      -0.97281915469750       0.65935820804370
C         2.29058393233513       1.02815496337259       0.68362638944019
C        -3.18010447367909       0.96965271179617      -0.14916067325337
H         1.59430899969701      -0.04825793146014      -1.78601737438159
H         1.62110354234142      -1.77286115038089      -1.29284265368742
H         2.31512762351047      -1.11205062295128       1.03179715719819
H         3.46883073503134      -0.54130795248890      -0.21875450685622
H        -0.64704421667564       1.12803130891746      -1.45144418299338
H        -0.08246954094326      -2.30493208124717       0.92162988944901
H        -2.56561657147757      -1.38876414236508       1.32689856468167
H         1.30571862244107       1.16406468062469       1.17881752174625
H         2.37823115551477       1.74600894255679      -0.15936074947116
H         3.08777030375268       1.25034578691363       1.42334654588595
H        -3.00926402726430       1.84492013294348      -0.81151637542881
H        -4.03885578157125       0.38405492588149      -0.53788434707184
H        -3.41810899231648       1.33534387192850       0.87182046945352
C         7.47703228150734      -0.55610275440079       1.32653952323863
O         7.48843784208014      -0.62454359879727       2.54538091246699
O         7.91758079237015      -1.48377431178493       0.66714903452245
C         6.93018368174754       0.65809781213258       0.63632076509918
F         7.93259237424130       1.26054340974272      -0.10067742357969
F         6.44073398021812       1.56535289591301       1.56002330958188
F         5.90667811230729       0.28480107619726      -0.21332271993826
