46
C14H29NO2 optimized with ADF in AMS.
N        -0.24632140056163      -0.42007060685731      -0.40486121984803
C         0.50033162799078      -1.71960472281247      -0.72401044439452
C        -1.72601347444037      -0.81241372082440      -0.27819989688517
C         0.25353455420211       0.16674554651031       0.89697740794703
C        -0.56114785788059      -2.61146356190210      -1.33648622796374
C        -1.77175788498181      -2.32872146110828      -0.44220189388905
C        -0.04280455656885       0.53601957658058      -1.57294874581543
C         1.75269357726866       0.39185225377109       0.94206433861622
C        -0.74294642274514       1.86828540650128      -1.41560300988646
C         2.15532952928561       0.96862322036257       2.29923099227682
C         3.65744141149471       1.24422441603786       2.43456091170670
C         4.56158478571408       0.00492095385663       2.28971066775537
C         5.08371772774229      -0.24158550895772       0.87250089933174
H         0.81837914708304      -2.13887734185205       0.24337082360963
H         1.40191181875608      -1.46001919915102      -1.33273105578587
H        -2.26173525253725      -0.31269193469869      -1.09525745042328
H        -2.11730588307939      -0.44315108690401       0.67871570630867
H        -0.06269317985660      -0.54463012053184       1.67967775974729
H        -0.30012436585712       1.10569057845288       1.05339308195342
H        -0.25066559684730      -3.66608743083870      -1.32887470267556
H        -0.76503882099558      -2.32844412436146      -2.38294714406927
H        -2.73272416416229      -2.65567799414709      -0.86630615078217
H        -1.64041258701050      -2.82898360343626       0.53225865616392
H         1.05508923387687       0.70531976916557      -1.69539039547317
H        -0.41210904881220      -0.01417581621992      -2.45181313275734
H         2.27115904496207      -0.56459888373589       0.77920383056943
H         2.07941248301531       1.05225988059833       0.11803800780780
H        -0.61573420815706       2.41182803643572      -2.36420333981089
H        -1.82329095173673       1.79674493101118      -1.21217070789724
H        -0.27007052337530       2.48587204765170      -0.63852229465743
H         1.85002489912146       0.27191741576567       3.10545814514092
H         1.60351979295827       1.91140601910486       2.47639489903309
H         3.82049658465047       1.70170311019321       3.42576136391310
H         3.95435039368606       2.00086354917462       1.68568737762041
H         5.42731596088471       0.11917614964693       2.96561425296591
H         4.01586515855298      -0.88698844111517       2.65353915297657
H         5.64372824106042       0.63655362238913       0.51323548314842
H         5.76686293775809      -1.10564804928238       0.84967166330947
H         4.28454241167020      -0.43757511366745       0.14523511792611
C         4.83218043418252       0.52400457528050      -2.73660401369041
C         3.41296096690747       0.32727357542720      -2.19323305960494
O         2.76019142058030       1.38638629100167      -1.93136858048279
O         3.00909173507839      -0.86930120844458      -2.04616121182794
H         4.77182031362301       0.81925775057948      -3.79658832242803
H         5.33121084540569       1.34346694402897      -2.19918268527365
H         5.42120960199407      -0.39984393517914      -2.66137226460568
