29
C7H13F6N2P optimized with ForceField in AMS.
N         1.11312886971537       0.33880209727041      -0.35600555665534
N        -1.11013507893017       0.36335501202045      -0.36906311028937
C        -0.00204139598540      -0.23201156178035      -0.85154286986161
C         2.49354514548197      -0.05578983037673      -0.62562593722999
C        -2.49574972965621      -0.00723542632731      -0.64687085046625
C         0.69787447906260       1.33250702615896       0.45544206399979
C        -0.68249944080539       1.34837701487092       0.44654093397922
C         3.10357694352213      -0.72430657469330       0.60078399616992
C        -3.12423329748404      -0.66368869004076       0.57718991171584
H        -0.00735358481488      -1.07672059736664      -1.52884993381227
H         2.52635130538645      -0.76881258240166      -1.47770942879714
H         3.09080213389935       0.83912920902951      -0.90008975007271
H        -3.07549284283254       0.89792630151420      -0.92860416643777
H        -2.53531845714598      -0.72231813207641      -1.49700627197324
H         1.34896995399983       1.99488720145580       1.01147878162107
H        -1.32530801555441       2.02394158547628       0.99639425112231
H         3.11212239715494      -0.01993728546794       1.45951980519257
H         4.14754644753803      -1.03100960557796       0.37942257034330
H         2.51454292669693      -1.62618036178108       0.87262633116819
H        -2.54981594453635      -1.57310515545880       0.85546650622258
H        -4.17092237482226      -0.95646215525215       0.34989380734747
H        -3.12825484015102       0.04260264545428       1.43432671038675
P         1.94149853093470       3.50445925482614      -3.39405496186216
F         3.31670655462138       2.94637024725615      -2.53007530213101
F         0.80034002086204       3.01099891425954      -2.20993729057108
F         2.12160333612857       4.98057997251873      -2.53416021695529
F         0.66076212171630       4.14870789403463      -4.34027806192308
F         2.95528627295258       4.02708192246373      -4.67854731964619
F         1.79432292504545       1.93455144619137      -4.07578616628452
