34
C10H16F6NP optimized with ForceField in AMS.
N         1.73741317039973      -0.02509203834951      -0.51342887197097
C        -0.64007664693070      -0.00575744063023       0.09450780645619
C        -2.08023758430803      -0.02231650217852      -0.42844585302273
C         0.37316564243495      -0.05304968030266      -1.05275733609170
C        -3.07934387150650       0.03285954404163       0.73288976924019
C        -4.51782863253948       0.03052466643286       0.22565249966700
C         2.35413794221475      -1.19678986955576      -0.17032111192190
C         2.36293565040241       1.17446135191675      -0.30968674260094
C         3.63205070100832      -1.18619231083330       0.39249795725365
C         3.64330971460893       1.22026560922722       0.24749541835220
C         4.27910255294216       0.03082367241142       0.59994533621972
H        -0.47739917876448      -0.88236698679539       0.75946138017835
H        -0.47234658421455       0.92001356746042       0.68770933900561
H        -2.24887682206616      -0.95116381327855      -1.01704517929047
H        -2.24055634180992       0.85345366881532      -1.09547861941487
H         0.21785073369320      -0.97499254109751      -1.65722082530865
H         0.21132152777799       0.81127871710181      -1.73544539434392
H        -2.90995330985236       0.95604525948253       1.32938659999928
H        -2.93004490729206      -0.84631619516180       1.39736517634324
H        -4.70009815492264       0.91494833096914      -0.42111160283065
H        -5.21501532951675       0.07187899901357       1.08885654521532
H        -4.72164066558877      -0.89578698527217      -0.35231340109578
H         1.85407065071557      -2.14678508320526      -0.31854379718817
H         1.86834576179000       2.10425360341263      -0.56556791406363
H         4.10905849835263      -2.11503453865065       0.67402122061236
H         4.13252905803355       2.17149465400317       0.41293359437351
H         5.26776483225075       0.05257710737972       1.04001261811025
P         7.33884643502431      -4.02752625094870       1.61100188545946
F         8.20206754785471      -5.10754979506219       2.63123926629394
F         5.89579246312301      -4.94795621853962       1.76384895787701
F         6.80910609459823      -3.10220733483580       2.95857587244498
F         6.58626103410089      -2.93668493031521       0.51889926018569
F         8.75940829066281      -3.06754623375582       1.50067609585182
F         7.79680551112351      -4.98780910279953       0.26188692840462
