58
C18H34F3NO2 optimized with DFTB in AMS.
N         0.17626030125940       1.99413168327735       0.15084094227517
C        -0.49775657797034       2.98398925680731      -0.78846397283595
C         0.91573324873811       2.83352551597094       1.18273925736160
C        -0.85452907387055       1.16200198479465       0.85168121945711
C         1.14579956378871       1.16248056706131      -0.63249373412917
C         0.13011584114128       4.33040557086065      -0.47967001574580
C         0.37429166473645       4.24174796475838       1.02042326662438
C        -1.66983512910799       0.26464427710809      -0.07756983894042
C         1.89083180819321       0.12163426365663       0.20128340389760
C        -2.82239835741161      -0.37390326272104       0.70739361058227
C         2.99553846552091      -0.52027447143943      -0.64712362155288
C        -3.64745682840325      -1.30317937004823      -0.18799972586914
C         3.74882450314638      -1.58895278925242       0.15070690909493
C        -4.80290684072619      -1.93923686477812       0.59151299619124
C         4.85670436307564      -2.22920168408648      -0.69187159984258
C        -5.62833530882601      -2.86659962964072      -0.29827492600824
C         5.61049657949318      -3.29537044085287       0.10068425489343
H        -0.36222860184832       2.65334034072031      -1.81775759897169
H        -1.56319970575509       2.99686765281957      -0.55350732468493
H         0.75981398977584       2.40639722792844       2.17278215723768
H         1.97948933504111       2.80172589456599       0.94181624670558
H        -0.33989555263919       0.55478495445497       1.59966371196749
H        -1.51161625845770       1.86386919264287       1.37172994444665
H         0.59093070954667       0.67064356135940      -1.43458383299548
H         1.85416164374117       1.86222137798435      -1.08360229656339
H         1.07072048487266       4.45961862087081      -1.01835851177427
H        -0.53805098419331       5.15617181666377      -0.72316955106937
H        -0.56039746991519       4.37883478081547       1.56566546923448
H         1.08714439454857       4.98811623850489       1.36395363471822
H        -2.07609979825282       0.84471431127095      -0.91006378944404
H        -1.03726783422529      -0.52513568124621      -0.49196837800949
H         2.33628203134452       0.58693950569467       1.08423561997732
H         1.20104935742570      -0.65623225075205       0.53991710049675
H        -2.41594810674979      -0.94103887942631       1.55141766139930
H        -3.46617699210533       0.41399364933080       1.11160211567976
H         3.69586507428127       0.25404037049050      -0.97675374624447
H         2.55074749341562      -0.97242642001596      -1.53985862140376
H        -4.04576621216267      -0.73255935934029      -1.03368307200211
H        -2.99953422867484      -2.08923763666657      -0.59075169406261
H         4.18565569536044      -1.13288511870589       1.04546072042117
H         3.04451953891283      -2.36099533533656       0.47899612962133
H        -5.44705417832823      -1.15022502411752       0.99339843217466
H        -4.40109512982963      -2.50680949608219       1.43755158182732
H         4.41659613938869      -2.68202010130885      -1.58666399208779
H         5.55743705516713      -1.45401734614382      -1.01908435370543
H        -6.05321341224946      -2.31349089466850      -1.13680654518813
H        -6.44316338446556      -3.30587935194576       0.27694870004333
H        -5.00695446712552      -3.67185747824665      -0.69230506149648
H         4.93130353842217      -4.08756071786432       0.41838090921819
H         6.39253758436344      -3.73522913806415      -0.51796884838462
H         6.07253913908616      -2.85784405283166       0.98649347302817
C        -0.05708816505852       7.80122128245065       0.69816665722793
O        -0.67317711957108       6.74463610068393       0.83860477663743
O        -0.35770674192713       8.97276128093546       0.70421893448986
C         1.55989509081178       7.51760449870015       0.43158093176474
F         2.31231431743833       8.60129541693938       0.21230320810552
F         1.74888694627120       6.69750135567092      -0.64588471840457
F         2.13730144284205       6.85301594518902       1.47363831211622
