44
C12H26BF4N optimized with ADF in AMS.
N        -1.48898113965348      -0.17047608908688      -0.04703621834008
C        -1.62618956096983       1.34531708252053      -0.09814695298499
C        -2.49836391880328      -0.73159162294524       0.94779607311967
C        -0.10303255946864      -0.56095058122950       0.46518269840762
C        -3.04960464121946       1.79432563033166      -0.38932147557046
C        -3.92558139221991      -0.31143598577120       0.64448471323422
C        -4.04280370403251       1.21227551400855       0.61454279100476
C        -1.69994837824532      -0.76200167098251      -1.40029724165938
C         1.06060074820988       0.16595086976874      -0.18007406548955
C         2.37608241567163      -0.41746901813212       0.34257226226119
C         3.59532763466908       0.30822700066756      -0.22027916910228
C         4.91757525522735      -0.26471566737224       0.28534424513483
C         6.13151409157243       0.46334484920909      -0.28569927053514
H        -0.92938450675605       1.69453620386246      -0.87248423302215
H        -1.29176064321145       1.70697816629763       0.88583323539301
H        -2.18334104333624      -0.34833706111009       1.93059345519984
H        -2.36533550363837      -1.82461054993719       0.93243358342125
H        -0.11273708648802      -0.36082449344050       1.54693733003858
H        -0.03451705794985      -1.64987184072341       0.30428557531763
H        -3.04465791709090       2.89567073865598      -0.33158389544276
H        -3.34368572058892       1.54080695368040      -1.42397235379071
H        -4.28711167458697      -0.75639549812086      -0.29967812471852
H        -4.55462816471325      -0.73141371709910       1.44699967487148
H        -3.80655952685047       1.60709326214124       1.61624301639344
H        -5.07009325584155       1.51493378760475       0.35674804801779
H        -0.91953004251911      -0.38910641319103      -2.07402381075137
H        -1.63430697666479      -1.85444798294441      -1.31823697240697
H        -2.68395992520069      -0.47814925432169      -1.78427076874392
H         1.04291837233684       0.08991669816099      -1.28224241856932
H         1.02449641493607       1.22994472219293       0.10042214775308
H         2.38011114552650      -0.34448870291229       1.44464531016889
H         2.43694612234330      -1.49236492795725       0.08791718681030
H         3.53440731610586       1.37896216249493       0.05018723221400
H         3.57682371645150       0.26149508084457      -1.32639504293708
H         4.97173175626756      -1.33815674144445       0.02563309779254
H         4.93504793397557      -0.21019543311585       1.38877323551586
H         6.14760461587502       0.40037260827377      -1.38607421196405
H         6.11371143283313       1.53068158526869      -0.01194254236658
H         7.07249431115469       0.03407414978236       0.09097730125245
B        -0.67721515674264       1.39507231434671       3.48372140138004
F        -1.98173249950370       1.79847277571582       3.02880882289430
F         0.27312825738046       1.79352823441304       2.48018754473925
F        -0.66936752714962      -0.04486704705703       3.54185717467201
F        -0.37557677389185       1.95512525395244       4.71940622498731
