27
C7H10F2N2O4S2 optimized with ForceField in AMS.
N         0.16558824925100      -0.00141204092759      -0.34442023888476
C         1.59798028300061       0.01004139936301      -0.66477202362799
C        -0.49074226912933       1.17953231116397      -0.12739322645778
C        -0.50108779426949      -1.19273729554709      -0.25196604507847
C         2.42815993097180       0.01455462185279       0.61451331703075
C        -1.85181522461155       1.18681110691492       0.18689049138985
C        -1.86307883484524      -1.22101521332256       0.05698193549092
C        -2.54002040208617      -0.02225836483580       0.27663828855815
H         1.86918712370393      -0.88077791062280      -1.27380290165112
H         1.85027562137878       0.90520008883398      -1.27532937439209
H         0.03799022506444       2.12318428531358      -0.19269607218966
H         0.02018727843752      -2.12945345330038      -0.41016815245252
H         2.19947144578428       0.91882756761385       1.21739578813914
H         3.50863347614747       0.01792118386439       0.35899731828700
H         2.20541083580050      -0.89132501917721       1.21760665625310
H        -2.36676038815821       2.12273537217518       0.36203751582593
H        -2.38686653278719      -2.16566960299618       0.12967356178123
H        -3.59449763988941      -0.03066089413762       0.52060447060069
N        -0.64730855612959       4.60395695057688      -3.26552245639292
S         0.39784845608113       5.84988551124181      -3.44414647078253
S        -1.97304016508223       4.73846423017182      -2.31681372048321
F         1.27071376969317       6.04707594322153      -2.02907560798448
F        -2.99959119864854       5.89680743145304      -2.95621151465271
O         1.33999602104128       5.55669946077437      -4.57679932493429
O        -0.35770115936022       7.11706073160395      -3.73106588123075
O        -1.56725202174817       5.15879524553274      -0.93219430596314
O        -2.68306612351057       3.41637981729543      -2.25493836289836
