47
C13H26F3NO3S optimized with ADF in AMS.
N        -0.77654037495576      -0.71552401191795      -0.43974915087900
C        -0.99912135784199       0.09378229960664       0.83149825445983
C        -1.48434192716078      -2.06176654134607      -0.32377921916362
C         0.71103795757440      -1.02260674627354      -0.61939394709843
C        -2.46733372805201       0.21334185418995       1.20780634055443
C        -2.95434523109994      -1.93612913726096       0.03291106821383
C        -3.12414347311445      -1.15832380181929       1.33635309281240
C        -1.28091180311100       0.03863074068014      -1.62419345298358
C         1.65340006238442       0.15129541051171      -0.44443877766554
C         3.09291524987004      -0.32082646199184      -0.67222599873296
C         4.10404053433452       0.80557312710578      -0.47370235636092
C         5.54874364215273       0.35436260640110      -0.67947068782246
C         6.55122383014292       1.48933060448229      -0.48819708723003
H        -0.54721974591954       1.07900251789113       0.65444513526810
H        -0.43262910035156      -0.41794330407117       1.62308890057654
H        -0.93908135564431      -2.61583274061612       0.45824597408256
H        -1.32519206871942      -2.57112674779131      -1.28712978255154
H         0.94735717241524      -1.80046432722441       0.12338597865183
H         0.79359733295965      -1.46107134615663      -1.62817102192337
H        -2.49513176791855       0.74717699486573       2.17173717136052
H        -3.01484937549327       0.84464085184053       0.48493930439680
H        -3.53147682422979      -1.46853994704945      -0.78537757093748
H        -3.34024275743642      -2.96299428781500       0.14116269983909
H        -2.62991123177047      -1.71102653856702       2.15397854654343
H        -4.19128884751651      -1.05135124352568       1.58587785681749
H        -0.70057749542826       0.96297345828755      -1.72760026654786
H        -1.15798643121850      -0.58736114319867      -2.51732872397544
H        -2.33889430449417       0.28116204059130      -1.48538068572592
H         1.42422869917756       0.98138751299835      -1.13713096564879
H         1.58599267415756       0.52358041149738       0.58954970433763
H         3.30575977058877      -1.13642303302234       0.04112550109138
H         3.20025453213484      -0.73882549181477      -1.69070262931484
H         3.99147603318278       1.21253441283091       0.54822307057089
H         3.87858651550956       1.63526944735722      -1.17119351970844
H         5.65844151161406      -0.07034945517778      -1.69441247372737
H         5.77451735448399      -0.46480082329356       0.02655925088185
H         6.36167135365676       2.30841543465996      -1.20134247896492
H         6.48043069593110       1.90852106614138       0.52886001525115
H         7.58376430329179       1.14115753230099      -0.63949219081431
S         0.72700587025970      -2.49667385978109       2.80121640556518
O         0.76478591331107      -3.43942493144157       1.65812841623519
O        -0.61940796797692      -2.25821335592917       3.35443805037823
O         1.53791214817410      -1.27641930139202       2.59665540019453
C         1.62801372116177      -3.40929539499602       4.17165511290722
F         2.90413602446392      -3.70630991244228       3.80784958120545
F         0.99667762216483      -4.57305899051562       4.47506186109686
F         1.67981746045554      -2.65082510660872       5.29745905648439
