32
C8H18BF4N optimized with DFTB in AMS.
N         0.15567813410119       0.15178530276867       0.00941265364188
C         0.92588110350043      -0.56114363010854      -1.05836839377203
C         1.19417465565368       1.06593266571969       0.59664722440892
C         2.29945731136680      -0.83077452474120      -0.44234255251383
C         2.46386848019482       0.22849437251667       0.65980977239460
C        -0.32901465081075      -0.81703917353071       1.05547144496825
C        -0.96818712536236       0.94608385310442      -0.57847235086970
C        -1.39843372500127      -1.78397863609758       0.57609258722760
C        -1.79260602431130       1.68105711831533       0.47003735820638
H         1.00517546476684       0.11451628709728      -1.91364469245315
H         0.39741736852464      -1.46316613608334      -1.36473059498843
H         0.87146101836929       1.42900140046182       1.56978525107979
H         1.30968262313958       1.90733496436301      -0.09144074861630
H         3.07362622368694      -0.74521103727129      -1.20729990377660
H         2.34490255652526      -1.83922682402171      -0.02673966926263
H         2.56078592874176      -0.23267735516902       1.64440502807798
H         3.33781490929945       0.85853244676347       0.48873635123561
H         0.54389099633349      -1.36700562818714       1.40630972892549
H        -0.70220172404456      -0.22235169343430       1.89016830525312
H        -0.51714867061675       1.66221564113361      -1.27098748376691
H        -1.59387264668789       0.25995583771282      -1.15505923525226
H        -1.62770320451453      -2.44616656018473       1.41088825192295
H        -2.31632584064547      -1.27236203068975       0.29057801426111
H        -1.06192427145875      -2.39732388429282      -0.25937478739565
H        -2.44718642539515       2.38357083300969      -0.04506882687813
H        -2.40929530690076       0.99429483721478       1.04590903139018
H        -1.15846906238142       2.23180292878813       1.16177964323464
B         0.83099345505366       0.87533091695766       3.82256619093028
F         0.67957254695159       0.89066844595161       5.17640437219684
F        -0.38179496165232       1.28052735644635       3.16763151277507
F         1.12137978446057      -0.43244841129094       3.34051462851736
F         1.85043093481329       1.72376032147807       3.37320969219757
