53
C15H30F3NO3S optimized with ForceField in AMS.
N        -0.06820612102810       1.48172895606401      -0.01193798842718
C         0.52391708792649       2.41781539200707       0.99401297524790
C        -0.73150929999217       2.36600382847329      -1.01901092538325
C         1.01559475413830       0.69082808667531      -0.68181138178388
C        -1.08444363532433       0.60853472741016       0.66121054140339
C         0.00333730771493       3.81419474800817       0.70973343605793
C        -0.28402199940587       3.79246854354721      -0.76491861171674
C         1.75922646927548      -0.29671806180871       0.24968316115081
C        -1.77465588280805      -0.41761523189301      -0.26996317542163
C         2.97855346354152      -0.90116831984431      -0.45783303357870
C        -2.87930743149535      -1.17026505070575       0.48337002870249
C         3.69572124940038      -1.91192936091694       0.44477831196659
C        -3.59236916756409      -2.17482352540844      -0.42907675777938
C         4.91400448216497      -2.50603779567048      -0.25439565442023
C        -4.66644198973886      -2.94422349035446       0.33540342946525
H         1.63489857984619       2.46734381032693       0.92291732952090
H         0.29351147686607       2.13689222931763       2.04740702615245
H        -1.84154937143773       2.35630937484468      -0.92171322450571
H        -0.50800716003210       2.08044758794958      -2.07250367764680
H         1.76240210791315       1.38934339767745      -1.12678698906273
H         0.60629242567546       0.11566371107436      -1.54148343232314
H        -1.87295579468167       1.24748412260687       1.12333383410924
H        -0.62245218510072       0.05582270417195       1.50895331822276
H         0.74837860567499       4.59758762488754       0.97066685728942
H        -0.93820623155710       3.98989447717844       1.27628265028448
H        -1.06904798585015       4.53047282178327      -1.04060550516993
H         0.64720979964500       4.00504523597300      -1.33570457667569
H         1.08017086658399      -1.12537035678514       0.54060577040594
H         2.09832490821942       0.21541172492766       1.17440173022940
H        -1.03696378275511      -1.16193036659949      -0.63494918608594
H        -2.22052628536746       0.09154648712630      -1.14992183900274
H         3.68572840113042      -0.08775761899904      -0.73333234701119
H         2.64687519612616      -1.41150258448541      -1.38908848127248
H        -3.62318927504640      -0.44134701534836       0.87411078096749
H        -2.42912206807954      -1.71130884937941       1.34497933662736
H         2.99861988769872      -2.73520262062354       0.71392597711318
H         4.02777505448187      -1.41096478904667       1.38033258657544
H        -2.85573308660699      -2.89880303376912      -0.84082541956767
H        -4.06941578180574      -1.63689810367014      -1.27733016875516
H         5.39310999576951      -3.26114628317375       0.40360358726385
H         4.61446848980166      -3.00043369731398      -1.20330726319210
H         5.65454124871239      -1.70866678190985      -0.47236883258052
H        -5.17066970083535      -3.66018758467452      -0.34732865436553
H        -4.21020044459619      -3.51431274255841       1.17277329219059
H        -5.42801224635471      -2.24455070470242       0.74138213778652
S         8.33109884148856      -2.01542314152054      -2.26916747323341
O         9.65111465931922      -2.54049423906931      -2.85274378067777
O         8.71962520210046      -1.60336418146367      -0.84146129034553
O         7.51159270815443      -3.29640644351738      -2.05476823297359
C         7.51527819777813      -0.72777186019930      -3.25096434845705
F         7.16694841133476      -1.24254238125714      -4.48458780155499
F         8.38039360791176       0.33546271153271      -3.42257854137877
F         6.37909957276935      -0.29474386869487      -2.59551078888396
