28
C8H18ClN optimized with ForceField in AMS.
N        -0.37756369746003       0.39028170897048       0.07119731015088
C        -1.43113233825499       0.67855383230752      -0.94363326635352
C        -0.88116365235052      -0.77951749890260       0.85070085968101
C        -2.69724700884410      -0.03161377026909      -0.50761045436847
C        -2.18622266314191      -1.24305654703588       0.22331316736671
C         0.90759726880227       0.07230713519583      -0.62600011427987
C        -0.22119943244407       1.57659580913453       0.95327681321443
C         2.12540551692225      -0.08977803458489       0.31464539514771
C         3.33190575386810      -0.64460133952240      -0.43673450752576
H        -1.15986748417446       0.28364416960230      -1.95113639260990
H        -1.62765835546215       1.76814254091860      -1.07678660206847
H        -1.08324250158940      -0.51813067791484       1.91581951968308
H        -0.17193351942173      -1.63638442579330       0.86508530184034
H        -3.33525081014067      -0.31320938367683      -1.37368512422852
H        -3.27356799715061       0.61454896225854       0.19106679499418
H        -2.91204574542689      -1.59959426320574       0.98623343958484
H        -1.98221422546923      -2.05854797857294      -0.50660817348820
H         1.15046860194278       0.87695710919327      -1.35786648522899
H         0.78638287704240      -0.86638375126528      -1.21569300799428
H         0.24123646574327       2.42461293781588       0.39983070072504
H        -1.20646467309711       1.91630707222159       1.34445984910948
H         0.41331770727162       1.34544338854739       1.83647453639153
H         2.41285255852464       0.89718078501986       0.73512820953002
H         1.89295359249582      -0.77142870576257       1.15812083309882
H         4.18107817779754      -0.76575775431868       0.26771207405975
H         3.09449083907429      -1.63707698172449      -0.87519894804423
H         3.63612999884653       0.05338771555786      -1.24576864535286
Cl        7.06913698949636       0.22421160170588       0.15604809266524
