34
C8H18F6NP optimized with DFTB in AMS.
N         0.52453940309092      -0.13569945707789      -0.44830465044099
C        -0.09762261504847      -0.39650922168940      -1.78610312905274
C        -0.56014834436063      -0.46923035355409       0.52282399518443
C        -1.55288514101502       0.04082838462035      -1.64688320638554
C        -1.84985681058489       0.01436021736631      -0.13789122929739
C         1.72907530294726      -1.01746334729142      -0.27724020702757
C         0.88622212980161       1.30546140934288      -0.34797091853967
C         2.46361156802839      -0.82166782771507       1.04523570166863
C         3.69060352261290      -1.73319260137200       1.06801833297458
H        -0.02639832089931      -1.46809217093567      -1.98349548457503
H         0.45942332742855       0.14804116825653      -2.54777936556291
H        -0.35783418123119       0.01146873296409       1.47980520936923
H        -0.56907670854302      -1.55349781056848       0.65581014923956
H        -2.20376800777576      -0.64363046681599      -2.19311972108262
H        -1.70048853413958       1.04359387983965      -2.05191292087878
H        -2.11757717436519       1.00998462257073       0.22134585939370
H        -2.67145577741897      -0.66351353141591       0.09905049516345
H         2.39677597099500      -0.79635404994662      -1.11049181247786
H         1.37871562781428      -2.04971571203560      -0.36602548755024
H         1.69442633930608       1.51305282803533      -1.04453004682490
H         0.01579521874171       1.90702285539399      -0.59841899945473
H         1.20257358043345       1.52842612515763       0.66775538987360
H         2.80030952614443       0.21230900862511       1.13860971101675
H         1.80506600279536      -1.05470900989925       1.88792847037459
H         4.21298314250010      -1.61894021699465       2.01685367621251
H         3.40164461983302      -2.77823634454392       0.94924948070785
H         4.36781215318501      -1.46018934816635       0.25875806143862
P         3.94772110389501       1.26406790449287      -2.57962253322993
F         3.99936655179491       1.61154559300431      -4.16492840862198
F         4.78348246097386      -0.12157416734576      -2.80273032209084
F         5.30194991159080       2.10394222469786      -2.27795902563161
F         3.81043196503906       0.88520900201941      -0.94204005728544
F         3.01136985709838       2.60256823261114      -2.29079980436881
F         2.50547374443197       0.39436623706986      -2.83173826673789
