46
C12H26F6NP optimized with DFTB in AMS.
N        -1.91079881067939      -0.33382886038839      -0.02230141769828
C        -2.16421148568749       1.09680305063945       0.36005763802761
C        -2.86984439937891      -1.23058727901152       0.71520906558315
C        -0.52718042055157      -0.73331409914065       0.41159566882752
C        -3.61286255993468       1.51820183364185       0.15306838994910
C        -4.33137173064706      -0.83739014940544       0.53563604852316
C        -4.56471109480092       0.61706968214732       0.93336425914338
C        -2.05317270112792      -0.53460846575329      -1.49066427310658
C         0.60781123036909       0.00024550467537      -0.30013849446244
C         1.95236543118972      -0.46984770882072       0.26868759169849
C         3.11871256064268       0.23526147639607      -0.43046398655893
C         4.46478781855695      -0.22809403421467       0.13547279499588
C         5.62996068584591       0.47186842044606      -0.56135196126921
H        -1.50149826602427       1.71932473632136      -0.24351037498071
H        -1.88404832787730       1.19534911013358       1.41359202178028
H        -2.59494835725103      -1.18021544374268       1.77337672067860
H        -2.69681557992136      -2.24676972176370       0.35299819149233
H        -0.46570653077554      -0.55727501979617       1.48917693168521
H        -0.44030418591276      -1.80847439406201       0.23132396032569
H        -3.70161509602885       2.55005686286938       0.50246381261467
H        -3.86541386993911       1.49911787641772      -0.90767870087788
H        -4.65265387764929      -0.99504657567320      -0.49480887432171
H        -4.92136059991444      -1.50053704336372       1.17380059585810
H        -4.40785888633617       0.74446041006155       2.01030090649014
H        -5.59346247123595       0.89154236308636       0.69359490540619
H        -1.51263974941680       0.24668044150815      -2.01832299595551
H        -1.65543600685247      -1.51369299253652      -1.75033230157520
H        -3.10121333227068      -0.48492403188334      -1.76362764733159
H         0.58060359589882      -0.20662519449981      -1.37261194596818
H         0.51626128292046       1.08004436649882      -0.15873837986287
H         1.98658032129887      -0.26032260846558       1.34320033673626
H         2.04463861717120      -1.55294382307158       0.13542365882030
H         3.01905373623638       1.31813096552073      -0.29997644020268
H         3.07977204114610       0.02311397073771      -1.50413028760469
H         4.55962234974248      -1.31147729464916       0.00601036023778
H         4.50021559858394      -0.01510918586472       1.20925743973960
H         5.62264118940151       0.25419648659273      -1.63008694225893
H         5.56295559822531       1.55216788771830      -0.42642421934062
H         6.57549020761393       0.12719665754810      -0.14281227232762
P        -5.43902318010211       0.26127928685529      -3.25997278163828
F        -6.05119160658033       1.67113075713332      -3.79217687180650
F        -5.85361387909231       0.65992577120786      -1.69216595809664
F        -6.86204006513845      -0.50172654358830      -3.45368073622717
F        -4.76183845249179      -1.16017159318204      -2.65352473220185
F        -4.94709540635657      -0.15634713692787      -4.75649025460293
F        -3.95099908906783       1.01185429974800      -2.99601712753646
