62
C16H36F2N2O4S2 optimized with ADF in AMS.
N         0.44767255237181      -0.19535868875850       0.31546540948159
C         1.15739502710382      -0.97471232058044       1.41188292196026
C        -0.66185516241606       0.62982854612543       0.93165088218168
C        -0.09464082643046      -1.19504630570097      -0.70164504065838
C         1.42168143206474       0.73200816795491      -0.40306287546679
C         1.86050440209308      -0.14378563638990       2.47215211942607
C        -1.53759129316051       1.39354212001219      -0.04826254771817
C        -1.21052022454807      -2.10060460435429      -0.21526989384434
C         2.72326513996690       0.09399875707611      -0.85262861948350
C         2.75396386913757      -1.06488083911465       3.31073964330458
C        -2.61933893605823       2.17458703459655       0.70260070441780
C        -1.56173204905877      -3.09709850298384      -1.32553801092506
C         3.53773516589655       1.10190359791552      -1.66764878778618
C         3.47373593130503      -0.31408315858585       4.42517252286757
C        -3.52102565952981       2.95950404791451      -0.24575314682685
C        -2.63616762873414      -4.08466843838500      -0.88457190274137
C         4.87299218463484       0.51189817888370      -2.11302935005456
H         1.87310363626936      -1.63326551838594       0.90290626396689
H         0.39286341004909      -1.61390888110286       1.87318882283118
H        -0.17271256826246       1.32730247556968       1.62646266903255
H        -1.26810924253539      -0.06769133793769       1.52823965304330
H         0.76232362878490      -1.80152392678195      -1.01895314840905
H        -0.42207975562446      -0.60309724282389      -1.56847124153824
H         1.60852246000919       1.57410305495639       0.28040299023487
H         0.87294159186223       1.11953504526542      -1.27291376460249
H         1.13866243092406       0.36854172467973       3.13153943811940
H         2.49640015317554       0.63186065755248       2.01355985797829
H        -2.02250521150565       0.70277079230755      -0.75701912313099
H        -0.93592313016207       2.10285879166835      -0.63974689424232
H        -2.11338328945122      -1.52759232143827       0.06027618075977
H        -0.88888445726592      -2.67590752911347       0.66698576556373
H         2.53891876513815      -0.79818113734361      -1.46988045966176
H         3.32044462081407      -0.23824112987451       0.01021956516926
H         3.48331919489465      -1.55401283762600       2.64315901833968
H         2.14260504654669      -1.87896511382221       3.73967174498350
H        -2.14206944866127       2.86607667911650       1.42019902751265
H        -3.22836798510929       1.47258025337750       1.30060744765673
H        -0.64617199327229      -3.64009697873282      -1.61197868232464
H        -1.89811478149721      -2.54544780998261      -2.22210095188705
H         3.71031639915585       2.01635937350372      -1.06864101915364
H         2.95452349694543       1.41035295255112      -2.55446600711037
H         2.75922343656391       0.12652574382774       5.13942817940414
H         4.09015638612516       0.50360016232436       4.01697983070832
H         4.13908911094972      -0.98769582914317       4.98472520026762
H        -4.03067535201882       2.28672454194210      -0.95383877850591
H        -2.93815927187523       3.68692362191737      -0.83328905700943
H        -4.29233613023807       3.51431190214255       0.30797965366682
H        -3.56851841679342      -3.56805325509214      -0.60243214729933
H        -2.29313131594223      -4.66873353061816      -0.01583339909004
H        -2.87254516144591      -4.79385464415328      -1.69138579767979
H         4.71623160626007      -0.38355045143011      -2.73324852927450
H         5.47577479120020       0.20540726777100      -1.24352222573346
H         5.45476948114412       1.24257798456698      -2.69376841465141
N         3.10229570921651      -4.82479191212357      -1.44098435690513
S         2.92840369833849      -4.32040133544740       0.06182622512455
S         3.02179611111054      -3.79238845004936      -2.66937640262713
F         1.25342637743253      -4.12896334708659       0.20240289275967
F         4.43846280266908      -2.94202416919096      -2.53784850719518
O         3.21984898373823      -5.40452804980070       0.97095683387170
O         3.40900701512170      -2.96965510772570       0.34910954817757
O         2.00224465712183      -2.74914749007171      -2.55042147365566
O         3.14923242466130      -4.53010985666732      -3.90374676121902
