64
C18H26F18NP optimized with ForceField in AMS.
N        -0.68482635803943       0.29041799871316      -0.20535602967138
C        -1.26184431056116      -0.48733770121375      -1.35002574920496
C        -1.80488542912366       0.73295827910083       0.68983098909896
C         0.29905272017889      -0.52568969693456       0.58942585237531
C        -0.03854768895470       1.51126895767155      -0.80078225040872
C        -2.13500197515461      -1.67850443489824      -0.92252110486836
C        -2.72722703980213      -0.41111094249379       1.15811355857559
C        -3.27250592347821      -1.20672773182629      -0.02311034448933
C         1.55598286259024      -1.00124244162186      -0.17826933039517
C         0.71960741460206       2.42579403417526       0.19309801553982
C         2.50759458684821      -1.75468380111139       0.76067185238265
C         1.26628801883802       3.66184507463714      -0.51726016947161
C         3.75346166290597      -2.23169465561260       0.01931362434531
H        -0.47010218119682      -0.85107781070142      -2.03737394318524
H        -1.90584417485948       0.17520873406796      -1.97506218764972
H        -2.44537686482188       1.48382716124117       0.17205522547098
H        -1.41300842527829       1.22496530671821       1.60585086099559
H        -0.18170481120407      -1.43104904875230       1.00834488120334
H         0.63229468223115       0.04562057710519       1.48177816665755
H        -0.80972487631694       2.13703452884060      -1.30784400674329
H         0.66596253733378       1.22249811822577      -1.61228983445260
H        -1.53181331394247      -2.45800179658791      -0.41306783600591
H        -2.56977374224620      -2.15028661149119      -1.83015807310974
H        -3.58092247253205       0.02251163443071       1.72261326376906
H        -2.19559700034323      -1.08801593782823       1.85599741305065
H        -3.97135065554809      -0.56939932143833      -0.60877859901117
H        -3.83989871102494      -2.08601327926797       0.35096913896167
H         2.10801112938149      -0.14060160401361      -0.60652867333484
H         1.26798768108163      -1.68994867308865      -0.99848382538938
H         0.05018251367997       2.77234428014034       1.00556870416172
H         1.58187557095348       1.89281615223665       0.64304556304964
H         1.98773046916691      -2.63706061335387       1.19396982867536
H         2.82014556168816      -1.08748027123439       1.59355387383334
H         1.81510540391596       4.29729217561518       0.20959585265400
H         1.96631678279373       3.36419906049220      -1.32690876660853
H         0.43530518245427       4.25784758568281      -0.95119127913882
H         4.30870956968230      -1.36534834292758      -0.39938520522171
H         3.47183398902461      -2.92035196327521      -0.80565230092151
H         4.41987549890162      -2.77398464067342       0.72257395211687
P        -0.12946401195937      -2.82577934360003       7.14904051386554
F        -1.02322459373639      -4.03867814702383       7.98780805843432
F         1.51042931588992      -2.92932298471807       7.66791002251256
F        -1.73046821057423      -2.89192704552715       6.52273790882449
C         0.55505213800676      -4.38011987982015       6.22685199710729
C        -0.36623847664499      -2.10446424840055       8.93007004607483
C        -0.07756148059485      -1.23596991777086       6.07353336942092
C        -0.44291584450192      -5.11467940452751       5.30480327869967
C         0.37642789692477      -0.78742768995302       9.27400519963592
C        -0.21396446126629      -1.39431103984474       4.54928028355147
F         0.98522522630563      -5.31035176923812       7.16619857152512
F         1.66299159067337      -4.03746512884535       5.46839759824628
F         0.05651254184806      -3.04025180828267       9.86924713674924
F        -1.71833250603089      -1.87709088982235       9.13702538157112
F         1.12274363702526      -0.59110932669052       6.31310502174779
F        -1.10621416507754      -0.39675170098869       6.46767396466358
F         0.16925911543827      -6.24529728223088       4.79353099873405
F        -0.82405300988107      -4.32666834320644       4.24193879390643
F        -1.57074101540879      -5.51734424452377       5.99606930488225
F         0.26514966634394      -0.56103114763959      10.63486825587340
F         1.72266829662220      -0.85119893448435       8.96894564171864
F        -0.18350908290510       0.29956091112097       8.63546281955697
F         0.76501035051997      -2.21352817512473       4.02940493452994
F        -0.07029437985394      -0.14864252851945       3.96558458685831
F        -1.46532918298691      -1.87122508048632       4.20910981507448
