52
C16H34ClN optimized with DFTB in AMS.
N         0.06818955449323       1.76441143925823       0.05082908023098
C        -0.55230960046899       2.75788199348282      -0.90861493337217
C         0.82406930563113       2.58930707838124       1.07382911180318
C        -0.99063464188517       0.97362936938865       0.75432215795504
C         1.01837501187383       0.88143605708294      -0.70865813094756
C         0.02410225962382       4.11894138444772      -0.54217426338355
C         0.26933413543818       3.99832013075223       0.95653113826178
C        -1.81850722564649       0.07619844854016      -0.16453986296787
C         1.75511077512193      -0.12883418788402       0.16721234897773
C        -2.99307955307875      -0.52004094811071       0.62013234552891
C         2.99848259111592      -0.61985722702413      -0.58428506809024
C        -3.82880247456653      -1.44981633304977      -0.26480879879211
C         3.78964536884049      -1.62708627966656       0.25340957341744
C        -5.00382128822018      -2.04847315367135       0.51486850147635
C         5.05384833565275      -2.08168786270666      -0.48281255405793
C        -5.83870559678898      -2.97714351824929      -0.36488137386872
C         5.84618994428522      -3.09381343094009       0.34267988552444
H        -0.32306233213593       2.46026549401708      -1.93127838197136
H        -1.63492341946446       2.74417240550823      -0.76657815006603
H         0.70564170915049       2.14700161033093       2.06211135698640
H         1.87738652903699       2.59461069804848       0.77625343568880
H        -0.49330036347584       0.36323416049433       1.51175420196914
H        -1.63729093133421       1.69470080280574       1.26226015276296
H         0.45190697562106       0.37474396697525      -1.49210414684095
H         1.74255646690992       1.56530094625462      -1.16852357436202
H         0.97555676306983       4.27508219144847      -1.05817358076795
H        -0.67112395795721       4.91936986902444      -0.79711094317775
H        -0.65972662220904       4.11625107841263       1.52255928639524
H         0.99942500071921       4.72590285987519       1.31185776952338
H        -2.20248357141124       0.64508338358238      -1.01536623429620
H        -1.19972314205365      -0.73654895343098      -0.55328160090290
H         2.06902206886037       0.33650994269780       1.10470794352261
H         1.10553492235943      -0.97667544188064       0.40997607313231
H        -2.60875538464981      -1.07901925946248       1.47991198900478
H        -3.62453799749072       0.28925563448914       1.00211953083139
H         3.63122713120269       0.24132162538195      -0.82092487062992
H         2.69311296993551      -1.08323417597128      -1.52844146518382
H        -4.20795668494959      -0.88828572376683      -1.12542301773461
H        -3.19326961803789      -2.25620144921034      -0.64613778841003
H         4.06883741136810      -1.16639640505146       1.20725835117505
H         3.16012548568099      -2.49690029180266       0.47469972974542
H        -5.63687745685947      -1.23991302478853       0.89571007198569
H        -4.62150694134696      -2.60746860348712       1.37559476741283
H         4.77465719734506      -2.53214279272960      -1.44139111112485
H         5.68307077688250      -1.21099474716954      -0.69295707051847
H        -6.24504172489302      -2.43245239044286      -1.21813817901325
H        -6.66728951739338      -3.39038923916961       0.21026310080151
H        -5.22884592309151      -3.80115085286919      -0.73755052760881
H         5.24260109927096      -3.98006097479812       0.54529984217655
H         6.74105332130469      -3.39990596404659      -0.19967175945961
H         6.14996089215666      -2.65638072763280       1.29481867556168
Cl        3.18970103435807       3.19842270943250      -0.99783750700291
