31
C11H14F3NO2 optimized with DFTB in AMS.
N         1.61558601137271       0.01259103500078       0.43626068780476
C        -0.80995863736856       0.52175990582186       0.28195667329541
C         0.38597365510830       0.24009562597009       1.19282575066210
C        -2.03597793219333       0.84915398078751       1.14233890858380
C        -3.23898112902616       1.20156331969518       0.27176549826168
C         2.09606884923865       0.99106718692251      -0.34869065909540
C         2.28547628063480      -1.14286790539967       0.57823623113331
C         3.28389367727915       0.82811062761155      -1.03016635871629
C         3.47894532732775      -1.35265701453529      -0.08004520020201
C         3.99511875354890      -0.35661305821085      -0.89916449647595
H        -1.00562135840949      -0.34920314970561      -0.35334675656371
H        -0.58706066391705       1.37261631574324      -0.36800700932749
H         0.19887407560498      -0.63904074684020       1.81333155299855
H         0.55209961080416       1.11394663641633       1.85092644660458
H        -2.27693035071183      -0.01247159017349       1.77350557050848
H        -1.79363591493270       1.69143669012352       1.79724256896313
H        -4.09726690331055       1.42610799471221       0.90457285811315
H        -3.02264174692873       2.07642239593946      -0.34259492940499
H        -3.49878218461878       0.36977481748704      -0.38548667863075
H         1.52712638040841       1.91022336350423      -0.39772368988894
H         1.84998972077728      -1.88765211041952       1.23323958674163
H         3.65324438095262       1.63803521801786      -1.64599619522905
H         4.00094146793637      -2.29113240865190       0.05667555687804
H         4.93523647978092      -0.49993479979133      -1.41730291590884
C         0.67421823791190       3.60975390443449       2.98528863524057
O         0.04897745968878       2.54923775842932       2.92863253117380
O         0.62650373009352       4.59700503427102       3.67382831965679
C         1.84711315194499       3.64518259962170       1.80627276638453
F         2.75413041763407       4.61881177655496       1.87883043715827
F         1.28712959994959       3.73025589544566       0.56232445290800
F         2.54983379621934       2.46842726241732       1.77608426367288
