47
C13H26F3NO3S optimized with ForceField in AMS.
N        -1.62513194351558      -0.29416782901992      -0.18060219494949
C        -1.91003582886050       1.11957334307011       0.21382859361885
C        -2.63256578259871      -1.21610937627232       0.43573021302393
C        -0.28393974736240      -0.70931883619226       0.35156344709314
C        -3.35583065896046       1.55871593557455      -0.07420867753152
C        -4.09861713976854      -0.81789919103368       0.18149448315560
C        -4.35168848885958       0.62488969456530       0.60423126318628
C        -1.64009214547392      -0.44611256040748      -1.66147515486909
C         0.93229440374250       0.07805255332257      -0.19647616379514
C         2.23717094180223      -0.45124344648235       0.41471108958826
C         3.45711281819047       0.28860543846216      -0.14787520961184
C         4.75536436200430      -0.25257337385036       0.46249916065614
C         5.97598261490291       0.46714396025634      -0.10164405645895
H        -1.24274662018051       1.82540979614165      -0.32638511255974
H        -1.72063061629838       1.26133193232453       1.30287282988495
H        -2.49596240872086      -1.25217528171758       1.54196760276375
H        -2.48625286672980      -2.25721033401490       0.06621511595115
H        -0.27088347611796      -0.61259966886249       1.46231159341802
H        -0.11197289648049      -1.78947131747598       0.13397908049491
H        -3.50619157029602       2.58887274103336       0.31519892045770
H        -3.54507094248688       1.59004771466797      -1.16834859571874
H        -4.37756687801258      -0.96123014527314      -0.88288425255372
H        -4.76067474141124      -1.48511963182234       0.77502501076510
H        -4.25312440340414       0.71286632140436       1.70871829997902
H        -5.38643779901101       0.91815177963982       0.32507042155187
H        -1.01804291372559       0.32852836638471      -2.15786173358481
H        -1.26615684097046      -1.44928253851122      -1.96494000647846
H        -2.65482750385416      -0.33191865143526      -2.08865631722110
H         1.00175613206353      -0.03326329494385      -1.29811543206019
H         0.84434386132714       1.15496532037204       0.05535226457526
H         2.20591362836496      -0.32332778847307       1.51950603907359
H         2.33264809721171      -1.53531758319801       0.18702123012365
H         3.36764372845314       1.37394567866488       0.07914757411202
H         3.48893755833312       0.15944110334342      -1.25238261670183
H         4.84945659192891      -1.33819191160608       0.24305918260178
H         4.73529353456030      -0.11437464827476       1.56526023750883
H         6.03651987710035       0.31985954229125      -1.20105618509456
H         5.92107603484019       1.55382353550493       0.12184195333310
H         6.89656800255087       0.05458956693007       0.36282962110669
S         4.64228907476528      -3.74008017917704       2.71498356328064
O         3.68426156331881      -3.48437061323371       1.54342704687398
O         3.72171435091947      -4.32491118495215       3.79552743075767
O         4.94300915058230      -2.32850116060162       3.23858124109104
C         6.09827928895721      -4.74424784606765       2.31441372187155
F         6.86743482130634      -4.08528987969389       1.37473475416155
F         5.69037282925963      -5.96178985503442       1.80471174696887
F         6.84416176261410      -4.95008585522648       3.45889573776029
