43
C13H27NO2 optimized with DFTB in AMS.
N        -0.55274924388139       0.45199742426918       0.07602759308800
C        -1.57819516478499       0.43151559638024      -1.01635724469149
C        -0.95131857407839      -0.54103732600508       1.13848302639611
C         0.74351026024956      -0.00277383906138      -0.54444971564204
C        -0.40351987759721       1.81343066485772       0.69893356799794
C        -2.98606924242701       0.72378749653075      -0.51113202533615
C        -2.36642293504072      -0.33541735007469       1.66030022036605
C        -3.39591064796786      -0.31146685166681       0.53485482372768
C         1.96198849927444       0.04946875253250       0.37495052030463
C        -0.04017605419449       2.92306647263590      -0.27213110970630
C         3.15129054034236      -0.62411927737052      -0.31792245076197
C         4.39717821971391      -0.55784055764259       0.56330563868167
H        -1.54706966045703      -0.56767856936189      -1.46155432222782
H        -1.27848696092110       1.15682110007707      -1.77538505478197
H        -0.24138496490525      -0.42322729937379       1.96498566413067
H        -0.84791734151453      -1.53546199571831       0.69428996299518
H         0.91325768800355       0.61935439392571      -1.42785451319181
H         0.57929119825769      -1.03022865625103      -0.88294737620630
H        -1.33813011180668       2.04771640186696       1.20657139975114
H         0.36079445971888       1.70665927092615       1.47202225969972
H        -3.66044597680482       0.68140023157573      -1.37104355696596
H        -3.04161396916729       1.73084678449433      -0.09113091049460
H        -2.41248018411998       0.58641409236650       2.24552488251604
H        -2.57785905578886      -1.16440441617077       2.34055390987636
H        -4.37973894962790      -0.05897860419127       0.93692080638710
H        -3.46314712205112      -1.29816010574353       0.06268415347737
H         1.75484085972190      -0.45551374778797       1.31958596667924
H         2.21919254732023       1.08434677340961       0.60837224205080
H         0.09655599844994       3.83035645560131       0.31597771672271
H         0.89006464238767       2.72029082058909      -0.80093628824470
H        -0.82901679565263       3.10960516709487      -1.00070809664276
H         3.35104741536915      -0.12812023195988      -1.27461112024264
H         2.90744698968391      -1.67129152677860      -0.52850162945716
H         4.21067660768053      -1.04348341072010       1.52133419736355
H         4.67721116659651       0.47946364136314       0.74918425430129
H         5.22947167910415      -1.06164739510167       0.07159754924821
C         0.49851805699532       1.38146629833625       5.36452405693662
C         0.13227615534995       1.19598425047579       3.87414587374005
O        -0.97452178573016       1.63317509269107       3.50301617380819
O         0.99102722751283       0.62818395412741       3.15487447192393
H        -0.40443619874473       1.41587674476966       5.97073140750806
H         1.14718568961409       0.57171092849766       5.69346291864781
H         1.03212378821755       2.32594587178529       5.46863440046755
