24
C6H12F3NO2 optimized with ForceField in AMS.
N        -0.00964374455981      -0.03185752473326      -0.05023611822798
C        -0.93883256654738      -1.13940218251334       0.26446744705112
C         0.67499148949481       0.40269133816813       1.18676366348728
C        -0.76964159004422       1.10336225355456      -0.61859332929924
C         0.99517627345483      -0.49434788906954      -1.03272552667163
H        -0.39345314204865      -2.00503323973836       0.70316411496430
H        -1.71206809138090      -0.81518751526313       0.99676839263727
H        -1.46247916774326      -1.49344858474378      -0.65176680648231
H         1.37663773908152       1.24148277123305       0.98041660563017
H        -0.06007458530711       0.74726080440058       1.94731989366072
H         1.26162649504322      -0.43138951003775       1.63285682882972
H        -0.09243253437359       1.94885725896829      -0.87455822026947
H        -1.30378278076248       0.80008586913490      -1.54697617704994
H        -1.52706346988971       1.47914828546336       0.10554906494952
H         1.70789365289483       0.32175608865910      -1.28824130831675
H         1.58370155885730      -1.34863435095867      -0.62896545840669
H         0.50673864898669      -0.83002809036444      -1.97495753923427
C        -0.06160636992036       4.17928543529808       1.98121144954581
O         0.76780637975121       4.01992815157268       1.09952629063469
O        -1.06701371479780       4.83189841952069       1.75230971591633
C         0.14791753001484       3.58276548903206       3.34061426822799
F         0.17037317997504       4.58970199977994       4.28774345949954
F         1.34630860675860       2.89197442777726       3.38943779352658
F        -0.88774087473761       2.71254958095959       3.62703905979723
