30
C8H20ClN optimized with ADF in AMS.
N         0.07425294399854      -0.02817309957072      -0.00394686837949
C        -0.78557999825189      -0.28136509423006       1.22395284283449
C        -0.78948016263991       0.13266114168802      -1.25527566593260
C         0.98644780223002      -1.23776839691402      -0.21508664079937
C         0.86528113339215       1.24502749731420       0.20960225965417
C        -1.73388697739603      -1.45862448432016       1.12584523687552
C        -1.92713008662594       1.12604766504931      -1.13388323307236
C         2.07117411628511      -1.03887090845789      -1.25335943582062
C         1.83247493010440       1.22848693070871       1.37963270100505
H        -0.07627836638423      -0.42991944276615       2.05060733520527
H        -1.32644616656881       0.66008064446813       1.40975761445005
H        -0.09170074762844       0.44405658730853      -2.04564497297061
H        -1.14126923669386      -0.89814228552594      -1.51153227646885
H         1.40523531845588      -1.48313602074415       0.77234920288325
H         0.30825369918627      -2.05505963838289      -0.57111523633592
H         1.40011014823955       1.42321503534610      -0.73410972435187
H         0.12581594146708       2.04879458488306       0.33352284702819
H        -2.27268576340951      -1.52469116106680       2.08469433674458
H        -2.46580760051697      -1.35298705637855       0.31466790581089
H        -1.21660051835175      -2.40893471287979       0.93531995834894
H        -2.43728071839447       1.13964898058683      -2.10993157830369
H        -2.67742350632257       0.82044732615661      -0.39043934675710
H        -1.60747497284457       2.15792611574786      -0.92009421004878
H         2.56662871240368      -2.01431885919700      -1.37959637666317
H         1.64967405591146      -0.78789415354673      -2.23702137356402
H         2.83883143332887      -0.30016050904691      -0.97428065776088
H         2.39271616223286       2.17579566116019       1.36744549869759
H         1.32098944583478       1.16399111258408       2.34990434242196
H         2.56194577449284       0.40974178426921       1.30610895036197
Cl       -1.13884693303450      -3.09643859364308      -1.81331942859259
