58
C16H22F18NP optimized with ADF in AMS.
N        -0.55202253915100       0.16398094048456       0.78109407923426
C        -0.89434585033513       0.50490514650107      -0.65498976163404
C        -0.77637139550784      -1.32769491457294       1.00255740617910
C         0.92250059790125       0.48291623328272       0.97559909721181
C        -2.30093920553113       0.08944574036519      -1.05173782361650
C        -2.16996565654825      -1.78538294513342       0.60423495898047
C        -1.41254235548437       0.94765330551930       1.76627680702457
C        -2.50660440309812      -1.40992902331538      -0.83628993123166
C         1.47559731731042       0.25050651455108       2.36994885909995
C        -1.23750462916505       2.44989498293860       1.72193243661458
C         2.95876026656900       0.61866304325288       2.40046380494316
H        -0.15294336596870      -0.02782798915461      -1.27246865271947
H        -0.72758746928680       1.58355380552515      -0.77668424542664
H        -0.58996658429197      -1.52535975302581       2.06493027178039
H        -0.01081320270332      -1.83219559411292       0.39022078987533
H         1.04743487929080       1.53427755475167       0.67449841125996
H         1.45503460751761      -0.13909148900691       0.23745309084725
H        -2.43492321484268       0.35828843209235      -2.11262173941499
H        -3.04985012360556       0.66931588144680      -0.48714753217803
H        -2.91622660400489      -1.37944787207759       1.30344731140031
H        -2.19339491925217      -2.87829776421123       0.74469632370698
H        -2.45177135747087       0.66994234684995       1.56277047303647
H        -1.16404356174980       0.54828289451613       2.75380300043166
H        -3.54292929420828      -1.69363392911593      -1.07613032104730
H        -1.85081535663371      -1.96800964599299      -1.52985231145890
H         0.93630466205993       0.85225401214623       3.11449156760916
H         1.35322267783875      -0.79936572035816       2.67119857437743
H        -1.91511316179963       2.86859900970577       2.48120211063012
H        -0.22159051077718       2.76700492143199       1.99583780945065
H        -1.51165601255257       2.89359372793059       0.75371838321003
H         3.36393559784215       0.44472905430706       3.40708807484776
H         3.54200816901718       0.01099200581400       1.69072495948298
H         3.11470513209945       1.68056381757521       2.15246161420707
P        -1.48194586171667      -0.95708760522937       5.70080368602821
F        -2.18525020426515      -2.42416132948616       5.35775558862792
F        -0.70269347504447      -1.00144260378585       4.18062703888909
F        -2.20021570309657      -0.82675974916534       7.18719311411878
C        -3.13751743187539      -0.23270018095068       4.84041511988659
C        -0.04352229858440      -2.01572131768300       6.57524664917023
C        -0.53668310346618       0.81390398899734       5.90983434175197
C        -4.50295617458730      -0.46527716088464       5.57119679688654
C         1.07510866238782      -2.65393568565780       5.69880117047470
C        -0.89282504498372       1.73187302234315       7.11029554277642
F        -3.28850337894503      -0.85149121208273       3.60213555066666
F        -3.14141694695821       1.12446068629282       4.57312032967456
F        -0.64067180412749      -3.08395717808009       7.20568992253663
F         0.59752561985523      -1.31123036813395       7.56856825230605
F        -0.72155800539176       1.60878083808616       4.78024199552000
F         0.82715881314218       0.62676952790663       5.96413368137009
F        -5.51075178517373      -0.08690348912904       4.72165242623795
F        -4.60367947668045       0.30035454048085       6.67900078463462
F        -4.71526929105374      -1.75221419552772       5.90206756441409
F         1.87660532512502      -3.43491027142034       6.47257481788039
F         0.55286416383030      -3.43927611609105       4.72249487363389
F         1.87055100305085      -1.72374494760583       5.10694715946227
F        -0.19035943405449       2.90161211077157       7.01301634841110
F        -0.57524635420850       1.15919917657000       8.28819191962898
F        -2.20947961635564       2.04279204865465       7.11160989259830
