34
C8H18F6NP optimized with ForceField in AMS.
N        -0.36312621834165       0.38046216282444       0.05844466929704
C        -1.40597828534636       0.63757451189005      -0.97192706876419
C        -0.84041360270673      -0.81042611019412       0.82164494812509
C        -2.68433609890769      -0.02684044436571      -0.50567094426631
C        -2.20119142591143      -1.22264866495060       0.27332574583993
C         0.94141744665244       0.11663055257154      -0.62221055822289
C        -0.26422494974541       1.56593956166971       0.95017525316437
C         2.14329021603427      -0.05650404842744       0.33401426972667
C         3.36363239029249      -0.58057611075035      -0.41805604348557
H        -1.13774599386204       0.18439280306036      -1.95546356023746
H        -1.57550312464384       1.72306358831657      -1.16046223732946
H        -0.94648636239916      -0.59787609139987       1.91102740855498
H        -0.15225465376635      -1.68109956940118       0.73999627842250
H        -3.32910411194336      -0.32772294459473      -1.36024836268040
H        -3.24681654147194       0.65986153445380       0.16428977802831
H        -2.91152491175042      -1.49304730602791       1.08420836023690
H        -2.08114255708718      -2.08956733721604      -0.41452462814979
H         1.17903828015418       0.95286624161748      -1.31968377731484
H         0.85337085662145      -0.80292710702933      -1.24729365359142
H         0.15393666580778       2.44119793385583       0.40453690895393
H        -1.26503071661332       1.85160646385155       1.34636812079381
H         0.38403175101282       1.36068831406898       1.82937790511174
H         2.41125284705660       0.92216915494644       0.78425552497757
H         1.90440600395618      -0.76307390569853       1.15578541862050
H         4.22670574877662      -0.65761588472954       0.27610876298889
H         3.15511534851927      -1.58821863545631      -0.83704196524048
H         3.63285301338028       0.11024472591335      -1.24570938220616
P         3.95966579612370       4.16494897930595       0.61708139270461
F         2.68837199668173       3.62182179805052       1.63629636091036
F         2.80238680768734       4.05910056216685      -0.64770627122385
F         3.60304359172628       5.82003026535584       0.90664132491694
F         5.16452622999555       4.74250835322936      -0.46214376638625
F         4.98422955414943       4.17128635818028       1.99554751771177
F         4.53575809826848       2.58441861441279       0.27273407811315
