47
C15H28N2O2 optimized with ADF in AMS.
N         1.79586555556756       1.85280010119741       0.39014093912182
N        -0.37113174309572       1.72560647462463       0.43259280845788
C         3.17807902738080       1.85624644125719      -0.10078633122873
C        -1.73417853921672       1.45042887733636      -0.03379619713676
C         3.76548734343790       0.44739877511945      -0.14196450435238
C        -1.96106332624637      -0.05433613484752      -0.20956264448565
C         3.03046034113140      -0.49316019327405      -1.10740510230033
C        -1.91140410337347      -0.84381164829440       1.09737789434132
C         0.69164754421083       1.92005841897685      -0.37257712440418
C         1.44785732525525       1.59403181324434       1.69924301711383
C         0.08281454036863       1.52033914127767       1.71940453380047
C         1.90388385772203      -1.31586061802694      -0.47465553818708
C        -2.02218291222888      -2.35509892925052       0.90603571484387
C         1.16730508721260      -2.14743488080731      -1.52040947569359
C        -1.97354464180785      -3.08287045073640       2.24915051819285
H         3.75576857671115       2.50971329503718       0.56955091165547
H         3.16669154557833       2.31213318381592      -1.10382622409640
H        -1.87763261057841       1.99667820856086      -0.97840976596859
H        -2.42552892812655       1.87460683589904       0.71108490454341
H         3.76325775471374       0.02494243842307       0.88071212156754
H         4.81925889612822       0.56593756857556      -0.44854185427691
H        -2.94422471471545      -0.18444592490411      -0.69796787335411
H        -1.20337123472341      -0.44158358275162      -0.91444382181601
H         3.75865861007413      -1.19746714921852      -1.54763696012118
H         2.63016663546566       0.08637108937227      -1.96460924268775
H        -2.72515203099646      -0.49537516520436       1.76312806054569
H        -0.96534855979483      -0.66933376563976       1.63685014573927
H         0.65666055637161       2.09010306938326      -1.44068757615388
H         2.16155354201850       1.16720212279464       2.44522438991365
H        -0.56594164635894       1.24558525995505       2.53993601440443
H         1.19261251145777      -0.66831776671347       0.06289141853373
H         2.33619119896669      -1.96943391896549       0.30210865770500
H        -2.94234693172054      -2.61293664704269       0.34904774538454
H        -1.17402717884227      -2.68628376495990       0.28327440348129
H         1.86679225385540      -2.79704247148907      -2.07254273857394
H         0.66529649608336      -1.50221331512929      -2.26186955706329
H         0.40219019477994      -2.79167373234398      -1.06396812683608
H        -2.86639725923793      -2.84927043312783       2.85245176306764
H        -1.08921382580536      -2.75473113214878       2.81977799608911
H        -1.93190846324810      -4.17481750876641       2.11612948999272
C         2.16691484988072      -2.64916720303102       3.36537895126259
C         1.84290482736919      -1.15936498911050       3.18864354941627
O         0.62649782016214      -0.82744962301235       3.27568164061743
O         2.84008998584417      -0.38468568451764       2.98268189330765
H         2.11653344222374      -2.89636120854943       4.43836120074036
H         1.41453378886955      -3.26901937240621       2.85562777498195
H         3.17567158687623      -2.89012982718116       3.00225001391507
