45
C11H24F2N2O4S2 optimized with DFTB in AMS.
N        -0.49822948166368      -0.24745624051632      -0.03060532005362
C        -0.66429283490420      -1.24424834391232      -1.14421641164385
C        -1.73549558379093      -0.43152031315714       0.79095605236680
C         0.71503157572189      -0.55784189843943       0.79655305403990
C        -2.16211028710972      -1.29322314320396      -1.44005855257708
C        -2.85307902061765      -0.66947709052602      -0.21872191311027
C        -0.44610352078406       1.13345548495800      -0.62697820176268
C         2.02472007459613      -0.44153985423007       0.02275270671771
C        -0.26005209442232       2.27916730309856       0.36228942043232
C         3.20117997528355      -0.90967628126133       0.88586462861382
C        -0.21372860171560       3.58803014837791      -0.42887912665925
C         4.50529197460362      -0.80209922784123       0.09716918243232
H        -0.06941528407215      -0.92810354745013      -2.00394132735355
H        -0.30064638650003      -2.20855593906885      -0.78279968445200
H        -1.58614277125148      -1.31091189857967       1.42202451627562
H        -1.89329931525140       0.44096828237580       1.42377908929204
H         0.58700727830539      -1.57916168341491       1.16712770278700
H         0.70660606239184       0.12018212365796       1.65341972962733
H        -2.39380393908686      -0.73016798549923      -2.34501591125650
H        -2.47710238519760      -2.32712441733304      -1.59083246998158
H        -3.60794917626564      -1.33354976159862       0.20512807022587
H        -3.33895223658777       0.27079669734228      -0.48634165080717
H         0.38326769445478       1.13474009565232      -1.33266554770884
H        -1.37090573070151       1.26887464424333      -1.19041100570114
H         1.98159282400805      -1.05020879204118      -0.88279308666106
H         2.19828607623637       0.59313050066469      -0.27592259269963
H        -1.07971059561015       2.31411178295773       1.08638034359682
H         0.67694428877434       2.16179545212862       0.91283585638919
H         3.26092660225251      -0.29287786335620       1.78920139356073
H         3.04010185256877      -1.94776176410595       1.19721667864938
H         0.59128981457130       3.55490556523766      -1.16259837996926
H        -1.15375811181546       3.74823162300529      -0.95644313711747
H        -0.04210874595767       4.42269854513475       0.24959929369430
H         5.34236001020133      -1.12729782502226       0.71454328106873
H         4.46031541842642      -1.42598333086859      -0.79530570238852
H         4.67595896960581       0.22832628276907      -0.21469674345696
N         0.93865236016417       0.32258665962318      -3.47654546035441
S         2.41397720553487       0.90738905256875      -3.35615016710112
S        -0.19653243892527       1.33247908097567      -3.96340146662912
F         2.27892003841079       1.94846023012978      -2.08327749162889
F         0.01545187122138       1.44532019152557      -5.54869134666656
O         3.23625958277888      -0.13640673636906      -2.83211546771224
O         2.89030203540547       1.71895242905394      -4.42015061370998
O        -0.10876720232340       2.67309551193974      -3.47541471665389
O        -1.44464953696317       0.64291878437487      -3.80793301835320
