41
C11H21F6N2P optimized with ADF in AMS.
N        -0.18743148121457      -1.44851864367711      -0.78624407619152
N         1.77715329353943      -1.57905545983524       0.13328390514153
C        -1.58559132723923      -1.06731182457791      -1.04076775049864
C         2.90190064422226      -1.36801760372160       1.05834930257304
C        -1.71246650825350       0.37847950858475      -1.51814879319197
C         3.53012158310986       0.01549662512572       0.89728090906865
C         0.50456523844675      -1.20919904262808       0.33770504343830
C         0.66880109539840      -1.96554027117907      -1.73154402045989
C         1.90098688523673      -2.04740867133199      -1.15479634517056
C        -1.52787265434191       1.41202372079527      -0.40913451044034
C         2.69788837148620       1.14407014537343       1.50202172758386
C        -1.61646599551391       2.84079673052012      -0.94088779420340
C         3.34458297003124       2.50987535772966       1.28176791206852
H        -1.95824784581389      -1.77530938477714      -1.79573341903647
H        -2.14857250161171      -1.24061423710619      -0.11009679826072
H         2.52226753642887      -1.52679545198950       2.07965544816233
H         3.62525600866268      -2.16758132593027       0.84088584296077
H        -2.71925646695892       0.48608041902968      -1.96131900835235
H        -0.98084918049450       0.55499163682880      -2.32418434263781
H         3.70313094878296       0.20839179641807      -0.17506588324208
H         4.52005996368989      -0.01908671740063       1.38769751527472
H         0.10444398394707      -0.79485478162690       1.25286626749975
H         0.34813501725521      -2.17007143013330      -2.74433803782827
H         2.85745920695719      -2.33643623274914      -1.56982021667444
H        -2.28873498569512       1.24542520651128       0.37744608155509
H        -0.53416332801629       1.28086018839538       0.04927351332094
H         1.70400007915478       1.15748950874127       1.02629750881714
H         2.55549980166874       0.95482359265880       2.58340115754691
H        -2.58961081910125       3.02301677010290      -1.42538636335736
H        -0.82028496890045       3.01766413488872      -1.67874909171280
H        -1.49932137422213       3.57289513644378      -0.12760629345053
H         3.42591150334281       2.71825379358456       0.20487608374399
H         4.35379556588753       2.54594964272678       1.72367912441787
H         2.74431265019745       3.31025165863783       1.74015238814663
P         2.13967624556550       1.31275938379440      -2.85801153155132
F         1.02364059983434       2.49636036512420      -3.12005788301228
F         1.10216808169435       0.19477748979747      -3.54126466763787
F         2.83117302713340       1.58118456178955      -4.31199898379056
F         3.23081859739950       0.08605042054207      -2.54869945427071
F         3.14999320521849       2.39064111910773      -2.12987906067104
F         1.42868258018576       0.99963734491185      -1.36650912457710
