59
C17H21F18N2P optimized with ForceField in AMS.
N        -1.13627083672202      -1.65785201339435       0.17759005616892
N         1.08497781872492      -1.61987654421957       0.26241591216388
C        -2.53418515987101      -1.41354991445951       0.52508358668622
C         2.44425304615255      -1.33568291730933       0.71888949699790
C        -3.06151728451843      -0.15451055059157      -0.17462953650827
C         3.06458401241211      -0.18213453831002      -0.07968782678766
C        -0.05757541947568      -1.34779975067745       0.92154399974834
C        -0.66197414949602      -2.14452984933663      -0.98675151765672
C         0.71697835586705      -2.12432115278365      -0.93285045581909
C        -2.33451742990585       1.11097739091356       0.30311553282450
C         2.27699564298712       1.12369574061334       0.09933418952157
C        -2.93585963431240       2.36568405688493      -0.32117898525706
C         2.96041455765983       2.28504468671525      -0.61510279582488
H        -3.14628943577310      -2.29025176264157       0.22146587947746
H        -2.63863912103838      -1.29981847674623       1.62691170569831
H         2.43732501594157      -1.07204304102182       1.79985178503319
H         3.06834961156711      -2.24744846376828       0.60028661373353
H        -4.14720109905667      -0.06063153203921       0.04591807268085
H        -2.94306165194783      -0.26459559573548      -1.27504148318046
H         3.10237919070543      -0.45426606245196      -1.15733678627263
H         4.10883788038797      -0.03470260353153       0.27236651785820
H        -0.10391853244584      -0.88379069154605       1.89836138675274
H        -1.27172967768276      -2.46713669314356      -1.82083024141094
H         1.39869754776331      -2.42910660529463      -1.71641831417601
H        -2.40415919201839       1.19140222123196       1.40995436306461
H        -1.26141938920054       1.05935048751393       0.02143118843670
H         1.25393432288498       1.00700528880539      -0.31814146991549
H         2.19008357657885       1.36704899825992       1.18082291505005
H        -4.00120076847468       2.47078204112974      -0.02547042146107
H        -2.86300958926039       2.31779299818268      -1.42852782062134
H        -2.37905715248761       3.25846995666193       0.03361279949560
H         3.04581596081242       2.07226251628952      -1.70201938112147
H         3.97317845145424       2.45537284791772      -0.19214214282689
H         2.35893703745719       3.20854430689182      -0.47987834929053
P         0.84028848749664      -2.88165395552460       6.57710510701831
F         1.07105261830274      -1.97675028841073       8.02443554294873
F        -0.79845576199388      -2.84720262958212       6.04209517385842
F         2.55333158822063      -2.75747779732587       6.68414943115776
C         0.63201431134925      -1.07663423175507       5.89887156877493
C         0.25945531302959      -4.00329253017454       8.04725552705766
C         1.41211334632714      -4.18953161871007       5.27474481695781
C         1.84954010552265      -0.12438696228424       6.02635029736725
C        -0.38006894321220      -5.36022187217324       7.68641388889050
C         1.99036941399815      -3.66154108490176       3.95113732684108
F        -0.41884241320581      -0.46307223960685       6.56946470323948
F         0.28549074091723      -1.11360590363639       4.56234992738871
F        -0.69877964793016      -3.32901280076375       8.79923231654156
F         1.34698640528283      -4.27505250978273       8.86578761402477
F         0.32303361641060      -4.96298542237144       4.91552154758351
F         2.35638337202543      -5.03492556769513       5.84101182457669
F         1.51545726503042       1.09859511686816       5.47120974521773
F         2.94984151189960      -0.60385764044414       5.34824037065354
F         2.19521405045946       0.09600747766887       7.34698980055708
F        -0.88266469875145      -5.93541349928003       8.84021741751161
F        -1.43139635200451      -5.20576968321929       6.80224457793552
F         0.54958452715079      -6.23817787804583       7.16556487828459
F         1.01097813293571      -3.03917118488595       3.20694593557772
F         2.45351303388910      -4.73408170260016       3.20999366658975
F         3.04815926158097      -2.80325047197243       4.15305155558325
