32
C10H19ClN2 optimized with ADF in AMS.
N         0.40460978570914      -1.69003896125177       0.22749171517707
N        -1.65891401144848      -1.06164055591417      -0.06282243122783
C         1.80437821771814      -1.70672810651146       0.67858779234535
C         2.63722871832936      -0.63362083393674      -0.01785103222259
C        -2.90625978423894      -0.29102791432483       0.03428263812998
C        -0.56059815471522      -0.87878772507536       0.68631282618559
C         2.41602295150438       0.76583012680462       0.54847808338072
C        -0.06185362848899      -2.33102534712345      -0.89520330726221
C        -1.35423581612509      -1.93760195724214      -1.07690656025957
C        -2.82625866703942       1.04272871861214      -0.70469400434435
C         3.17069188314646       1.82008562109187      -0.25670654247853
C        -2.00214627082914       2.09069954122420       0.03311137968047
H         1.79678737623823      -1.57575497526092       1.77320062966831
H         2.17956785178591      -2.71848529071754       0.46480063028795
H         2.35918194934463      -0.61233779576768      -1.08927325129359
H         3.69935788669211      -0.92329909086186       0.07159846552211
H        -3.12090019926500      -0.15090895610556       1.10636117807817
H        -3.69345002287295      -0.93616949720587      -0.38300133542919
H        -0.48283667998025      -0.22802319191710       1.54597165176339
H         1.34235152414474       1.00548582996391       0.46493141992279
H         2.70780862766727       0.79218820280925       1.61672448562015
H         0.56809826851244      -2.98186622114919      -1.48674062785667
H        -2.06403996939574      -2.18097905379788      -1.85592071519632
H        -2.35644462834017       0.87109768549157      -1.69148899512354
H        -3.86403641989475       1.38686894654744      -0.85511807866985
H         2.76920750115474       1.82696354773784      -1.28308315665701
H         4.25256113615567       1.60861169156530      -0.28972758435431
H         3.02876014229935       2.82198747328369       0.17537635585765
H        -0.93977267301076       1.79887080849645       0.01823158231821
H        -2.35882394420255       2.24338995186821       1.06645848137869
H        -2.05770564694397       3.05190949434005      -0.49808345303730
Cl        0.26430295748887       0.62194894842699      -2.14534733930374
