32
C10H19ClN2 optimized with ADF in AMS.
N         2.02787760514305      -0.94759170640532      -0.10079002916143
N         3.21299229964756       0.84848805803373       0.26000056961075
C        -0.37084570164410      -1.59996603097767       0.15175785015769
C        -1.29574398673875      -0.66075864271519      -0.62139839764256
C         0.96661161889878      -1.85422483682837      -0.55257605149134
C        -2.52885908225549      -0.27261018275146       0.18816593834342
C        -3.47452016124630       0.64905204042595      -0.57979361790112
C         2.09006274022959       0.38028132607095      -0.33129755777289
C         3.02744576438685      -1.28673826572025       0.79736576030992
C        -4.68979944467279       1.06786759240251       0.24489597018913
C         3.76108098705028      -0.16373336614081       1.02573184908151
C         3.48403581290240       2.27011239499350       0.40629986162183
H        -0.15890841185066      -1.15832101406832       1.14146140004632
H        -0.87266785308573      -2.57078058920451       0.30999076074398
H        -1.59461660643908      -1.13893854902330      -1.57463012976004
H        -0.75099970828706       0.27057405705510      -0.85529014443231
H         0.87317209610821      -1.74493527933843      -1.64582794760100
H         1.34557682535378      -2.86819752470733      -0.35811179137849
H        -3.07281636807609      -1.18334794634030       0.50588000690045
H        -2.17884941402616       0.24544006056243       1.09956600901223
H        -2.91257184869708       1.54914235237244      -0.88912575758024
H        -3.80796174983969       0.14734748992231      -1.50777765247358
H         1.48826130959537       0.91964034613216      -1.04751559973162
H         3.13135192169650      -2.29338767681439       1.17916468060782
H         4.62212689313964       0.00516355788533       1.65910863700580
H        -4.37640879696986       1.62066353308461       1.14435602893656
H        -5.36648961221558       1.71672161908895      -0.33242751858584
H        -5.26621952116244       0.18867741085895       0.57545506905049
H         4.41613890517915       2.39539194599551       0.96844125775385
H         3.58806417603983       2.73381360657631      -0.58335311475181
H         2.61754999206171       2.69617649669227       0.94652226646216
Cl        0.38684301137416       1.63687896508263       1.25973835453038
