40
C12H25NO2 optimized with ForceField in AMS.
N        -0.11030195510427       0.02494855161394      -0.07351306577045
C        -1.02358093006681       0.52333479798118      -1.15367227709055
C        -0.62097115225233      -1.29653893387252       0.41939039346195
C         1.23380720868866      -0.18905941091693      -0.71427320518547
C        -2.50131132522759       0.61405976388773      -0.73632166629786
C        -2.09787648949665      -1.27378041601095       0.86358498235558
C        -0.02652856793664       0.99147596023253       1.07692553663906
C        -3.00064126273664      -0.73943491644401      -0.24293946024919
C         2.37088464235891      -0.63719848861301       0.23746930605705
C         0.57599513674043       2.37014648468616       0.74959526301132
C         3.67053869858618      -0.85406778916569      -0.53434541146135
H        -0.98033878962537      -0.15842957069215      -2.03539823937967
H        -0.69955314959427       1.51340317680937      -1.53664406840224
H        -0.02844875166550      -1.65231011931782       1.28908127454223
H        -0.52408588075532      -2.07289620099705      -0.37439585415177
H         1.56408709207355       0.73444947391724      -1.24037135400153
H         1.15145869045112      -0.95814861069544      -1.51741451135986
H        -3.10675000492048       0.91750576788693      -1.61780254119431
H        -2.65350723400810       1.39177645629417       0.03985033061680
H        -2.22591958383171      -0.67110738069469       1.78665981536648
H        -2.41696644590879      -2.30893464140549       1.11163440765882
H        -1.02440805612509       1.18277495416400       1.51646578172443
H         0.56001899699524       0.55215578493425       1.91261755251451
H        -4.03834881203766      -0.63588260711215       0.14099520928935
H        -3.01681165112897      -1.46163638278871      -1.08896997606705
H         2.56859487907639       0.13189990294812       1.01120354757235
H         2.11519542441385      -1.59203067040581       0.73912525251589
H         0.60820221738371       2.97437086392338       1.68088057184244
H         1.61652252159704       2.29404836691181       0.37742522087644
H        -0.04857028699436       2.92799766481007       0.02441250720016
H         4.47266311805793      -1.16669498899236       0.16726812724882
H         3.53903948597331      -1.64996802178383      -1.29814188799446
H         3.98492559703690       0.08680166683899      -1.03444007376208
C        -0.63349751679504      -4.73706297961733       2.94531764643106
C        -1.65612888798763      -4.88653671411406       4.02704792793904
O        -1.77736550814194      -4.01708799881657       4.87490214846297
O        -2.37095880129494      -5.87495440571357       4.06654249634775
H        -0.84093915610714      -3.81678945959118       2.36222756239389
H         0.37850249032306      -4.66197876960358       3.39574307341967
H        -0.65799148911302      -5.60985216957496       2.25801926307978
