26
C8H12BF4N optimized with DFTB in AMS.
N         0.15156524285270      -0.44496302282561      -0.28951289751795
C         1.50591804364181      -0.05787064460362      -0.71281334838972
C         2.28386949878936       0.51688500387611       0.47667592065181
C         3.76029367476634       0.65698071126101       0.11879147175645
C        -0.67760407700987       0.50067832907471       0.19612142583358
C        -0.18447529174517      -1.74497436807864      -0.26237493866815
C        -1.90542094089295       0.16241865515822       0.70704400595145
C        -1.43152749755757      -2.12977865658033       0.22453125151609
C        -2.29061728068192      -1.18075519836024       0.73308422970586
H         2.00321088751870      -0.95476870276160      -1.08884045778665
H         1.41656880263637       0.67575988690522      -1.52006943499491
H         2.18049165703672      -0.16340026512157       1.32528745534028
H         1.86909472959030       1.49032256187212       0.75790894052578
H         4.19004914192891      -0.32713438559489      -0.06633854960110
H         4.29323103840101       1.11700151864833       0.95031226615877
H         3.89055459294064       1.27740102255254      -0.76961517596532
H        -0.33265684779324       1.52633909473015       0.15132960267536
H         0.48523158616539      -2.44401438083661      -0.74604578460866
H        -2.55834140600241       0.93730896184753       1.08717252714296
H        -1.68688001928775      -3.18129093125753       0.22531031618977
H        -3.25633478267448      -1.46217471584097       1.13527654293794
B         2.37867170369296      -2.91373569940342       1.02729972263316
F         1.09973001677769      -2.29767988258326       1.38322555479571
F         2.43164840079962      -4.16595802355673       1.56301110634974
F         3.37941850778760      -2.07114352918489       1.47691840197118
F         2.39058515031923      -2.95062845303601      -0.38742159470344
