26
C6H14BF4N optimized with DFTB in AMS.
N         0.89719763498881       0.03858412277716       0.02072636245628
C        -0.21144036986107       1.03538205046159      -0.06817287819649
C         0.25488772587350      -1.17257039807009       0.62521472002614
C        -1.45343689978021       0.22305381194095      -0.42874016502354
C        -1.15482625769871      -1.21003641976769       0.04405331458020
C         2.00702567092425       0.54661367723761       0.86809036692115
C         1.42434131468253      -0.27894158572376      -1.33498251222615
H         0.04274159901539       1.79938647138759      -0.80365998372056
H        -0.31896150100938       1.50105979616863       0.91429738430730
H         0.24345501466207      -1.03485700314394       1.70769120955550
H         0.85133021748644      -2.05177311232914       0.38114273025346
H        -1.63179816404784       0.24700010429867      -1.50578803716548
H        -2.33161024445485       0.63768991625518       0.06892831133427
H        -1.86733278986881      -1.53575525280870       0.80357651508780
H        -1.21009176433098      -1.90878567372054      -0.79292508276207
H         2.41221536340824       1.44631231110252       0.40854708091090
H         1.62102726016398       0.77230482218668       1.86012745343206
H         2.77275033416230      -0.22555059323311       0.93064400845840
H         0.60747047578262      -0.62040918791580      -1.96620666319043
H         1.87263803555512       0.61910805743436      -1.75583701381766
H         2.17337612160132      -1.06488444192156      -1.24051197601334
B         3.33521627377622      -2.62804844745698       0.38172489814485
F         4.24120745718337      -3.61740852617096       0.59981916234904
F         2.31331110555516      -3.02787452241650      -0.52316930003781
F         3.93226027273890      -1.46493604313063      -0.17170165046590
F         2.68527601409163      -2.22343769844156       1.57744745820206
