40
C12H26ClN optimized with DFTB in AMS.
N        -1.16803078764282       0.02464895560551      -0.16137822834473
C        -2.05937434156325       1.01983226631321       0.50831347450740
C        -1.84952047492183      -1.31447005651717      -0.23243653509626
C         0.07643489036878      -0.18416409111666       0.66550557613426
C        -3.42569071084437       1.12670148179112      -0.16094793056875
C        -3.21313319166233      -1.25146432285458      -0.90327827843249
C        -4.11795265523440      -0.23498819660907      -0.20840170788087
C        -0.78674021140893       0.46719854941546      -1.53229928191828
C         0.91751686392286       1.06618232374732       0.91333727274931
C         2.33575216815256       0.64831949712101       1.33540152667756
C         3.18552333543649       0.21055084490157       0.13675437707480
C         4.53989575894062      -0.34204733731140       0.58978794121940
C         5.37199420868526      -0.80089313566543      -0.60626258007640
H        -1.55131054991508       1.98625013663150       0.49113101957926
H        -2.17536968391426       0.69822591166262       1.54740908859832
H        -1.95858713534137      -1.67012436858343       0.79558459398531
H        -1.16764575628985      -1.97918147188872      -0.77621458446288
H        -0.24522784012521      -0.60484429907647       1.62178474262049
H         0.65607571017340      -0.94008729047472       0.12483717604627
H        -4.02531430550529       1.83124999231756       0.42157608905698
H        -3.32329757851954       1.53244551001879      -1.17096570930811
H        -3.11470187085337      -1.00524781933788      -1.96340928618206
H        -3.65540055964657      -2.24857574072098      -0.83637223630561
H        -4.33541394015563      -0.57028553131900       0.81101657262206
H        -5.06429628462316      -0.14737041410876      -0.74721856366626
H        -0.34893691781194       1.46092151652407      -1.48379993654581
H        -0.06582475398439      -0.25554764236473      -1.92339259891865
H        -1.66724305529368       0.49279192417615      -2.16765134112539
H         0.98638643795796       1.68595098817610       0.01637743133766
H         0.46488517079945       1.67140574314489       1.70519073170100
H         2.81673789054456       1.49915315918448       1.82864128920724
H         2.27068642627721      -0.16464721611330       2.06615100946411
H         3.34217115624054       1.07082172226907      -0.52368354158082
H         2.66112765292210      -0.55586345455600      -0.44107291464535
H         4.37772463276711      -1.18915889646788       1.26493179124364
H         5.08606528257583       0.42898037330149       1.14522275952481
H         4.84441946996227      -1.57914234210526      -1.15802283641563
H         5.56408706165385       0.03422117939014      -1.28160205025905
H         6.32786391736577      -1.20037000377462      -0.26630019211940
Cl        0.91971916511072      -2.27292280912600      -1.64515187019706
