31
C9H16F3NO2 optimized with DFTB in AMS.
N         0.42985641308122       0.53277223070900      -0.00785016688937
C        -0.24731480539412      -0.79623151127904      -0.07992758742505
C        -0.48879595591934       1.35959790234369       0.83951717917121
C        -1.74210674431340      -0.48208674146717      -0.14938924693353
C        -1.89548954535069       0.93213593227093       0.43666511467052
C         1.77842548129284       0.45823045776698       0.65013405390113
C         0.53533081556373       1.13824249880113      -1.36365410482847
C         2.80798101250525      -0.32901879884537      -0.14211953507437
H        -0.00304070691035      -1.34713495291630       0.83128431494555
H         0.11708460832891      -1.34921857798537      -0.94562170103575
H        -0.27274052793414       2.41572279497370       0.67130581780047
H        -0.28761602147047       1.11148643546857       1.88378779612216
H        -2.30659572129173      -1.21812392673552       0.42548050589832
H        -2.09600488528371      -0.51456218610845      -1.18171852209688
H        -2.31410603926128       1.61432645973100      -0.30563694787859
H        -2.55372876042197       0.93449032627718       1.30687735132441
H         2.10813279198789       1.49355368759604       0.77849201326991
H         1.62416611372377       0.00488113725517       1.63270002546064
H         1.09800764906124       0.47295481766068      -2.01365667501901
H        -0.46345424916463       1.28812854421271      -1.76595922885575
H         1.04924814522503       2.09394982997587      -1.26567888080977
H         3.70665767538346      -0.39859286708296       0.46996178975264
H         2.46246433372059      -1.33671232365775      -0.37147098294960
H         3.07261465877809       0.18389157364311      -1.06449391370688
C         2.45168519616494       4.18671433373735      -0.02472766976145
O         1.50063674693401       3.44600518281551       0.27244482517616
O         2.64283027420070       5.37560459970290       0.03677857458402
C         3.68750055052321       3.29151183950031      -0.63591124409113
F         4.73367700566110       3.96056669801599      -1.11631877334469
F         3.23253984613431       2.49456287896231      -1.65222120126872
F         4.16357712934553       2.42046562575782       0.29277163839189
