32
C8H18BF4N optimized with DFTB in AMS.
N         0.26983978297113       0.05140691032953      -0.28824032900808
C        -0.75077184129920       0.85640721308932      -1.04435181958140
C        -0.22148525885826      -1.35739582311625      -0.12329381890233
C        -2.12683405958634       0.82985229585651      -0.39367307187920
C        -1.60002280242346      -1.43123792198385       0.52128715205151
C         1.53756518699138       0.08106968927376      -1.11215433706397
C        -2.62045225310965      -0.60922564943120      -0.26200937387816
C         0.54713817921990       0.67010994354566       1.03382023283420
C         2.58615120395846      -0.93963961352156      -0.70411321308547
H        -0.81160028883319       0.42319284720334      -2.04604586018847
H        -0.36753827374044       1.87727862340930      -1.11589742319834
H         0.50726122495807      -1.89081973164826       0.48964632615931
H        -0.24918896684809      -1.79752252782243      -1.12214154986234
H        -2.80140192436518       1.39486489930443      -1.04184715044218
H        -2.11237705894468       1.32347137012436       0.58349754823403
H        -1.56157368377720      -1.09796612382778       1.56397003948430
H        -1.89646561086613      -2.48348293465075       0.52175323607098
H         1.24894118879924      -0.10402755237008      -2.14853994639473
H         1.93193224395310       1.09767101838552      -1.03044105460861
H        -3.58615974292009      -0.62754899810559       0.24900853150481
H        -2.74401358187168      -1.04095639070519      -1.25852058799625
H        -0.35079888789458       0.66023863117960       1.64567655232227
H         1.33038151206426       0.10443713678423       1.53404357091184
H         0.87311073386984       1.69752128469195       0.88102732704058
H         3.50087680847813      -0.69870018689907      -1.24551756545232
H         2.80319290173696      -0.91994934971860       0.36361250219031
H         2.27707732362840      -1.94138496418501      -0.99786745765626
B        -0.21867700082935      -1.52003266854604      -3.64847295616757
F         0.13991967428454      -0.15501552404352      -3.79437913397524
F         0.79327763526676      -2.13093080014416      -2.85840817406704
F        -0.37362236195514      -2.14207367035496      -4.84742836585252
F        -1.41055513185752      -1.54673195910323      -2.87619192704367
