46
C12H26F6NP optimized with DFTB in AMS.
N        -0.98224597619670       0.19834480252157       0.71081418866292
C        -1.29750761091778      -0.03824192205577      -0.73327546645074
C        -2.18148727946202      -0.36392879273229       1.40318740116153
C         0.27173309066051      -0.51983634593927       1.14543426839105
C        -2.80093768528013       0.21031527502958      -0.86775989481759
C        -3.36460298298824       0.09392510284743       0.55805462155185
C        -0.85849764500500       1.68897781255866       0.93798180226113
C         1.40276200042537      -0.48635411422348       0.11934204312480
C        -0.93294861979801       2.12216230371906       2.39200131978553
C         2.70191354949504      -0.96797316098270       0.77708445960030
C         3.87018298942541      -0.87675399830029      -0.20802198313162
C         5.17954219105759      -1.31808035969937       0.45212539286666
C         6.35347207371442      -1.20814178279478      -0.51879773120625
H        -1.05508570167716      -1.07766835973465      -0.96297119439650
H        -0.69028923011418       0.62373625139658      -1.34966514515044
H        -2.21278481257948      -0.02591063137872       2.43705853433110
H        -2.09504194904003      -1.45295759776827       1.38430738085888
H        -0.00451370793284      -1.55660267593604       1.35590746325832
H         0.59777301400431      -0.04796746895622       2.07310732406736
H        -3.24240746024133      -0.53447492924081      -1.53223749133278
H        -3.00087134324508       1.19803867336209      -1.28634123022173
H        -3.74178904359223       1.05707577940747       0.90719477169420
H        -4.17690220138886      -0.63194383296272       0.61558913591715
H         0.09929382074756       1.98501713974231       0.51173224910416
H        -1.65661734919228       2.16901895181701       0.36880026408921
H         1.16181985109371      -1.13315804056200      -0.72997116058515
H         1.55056908856505       0.52779038761834      -0.25092389001030
H        -0.62225639127757       3.16588959957164       2.42539835824979
H        -1.94387915089594       2.04835544125140       2.79261421594276
H        -0.24927046160964       1.55467165535290       3.01912342987296
H         2.57965854447484      -2.00078678700676       1.12353689419111
H         2.91541905574724      -0.33986841626312       1.64613509010455
H         3.96845716265503       0.15801260406637      -0.54863649088077
H         3.66562427479245      -1.50451377688062      -1.08307140003596
H         5.37190567001714      -0.68864558838929       1.32692748185510
H         5.08615024800140      -2.35396419603589       0.79813395870594
H         6.46483594523021      -0.18016879822958      -0.86539511770934
H         7.27738073089014      -1.51049954800064      -0.02496512976210
H         6.19613339149463      -1.85179220021560      -1.38599065279860
P         2.60643619300941       3.12315153158492       1.10591511866220
F         1.90526477149334       1.79983887746428       1.89671298978183
F         3.89555164305093       2.17901633592585       0.73787840977427
F         1.85357577984745       2.60387580448117      -0.30909838986990
F         3.23945940008349       4.38699892388494       0.30800000965323
F         1.23592453444449       3.98968698837658       1.45543198761439
F         3.28727396831342       3.58539884590874       2.50822208252551
