61
C17H24F18NP optimized with DFTB in AMS.
N         0.76232233301975       1.08011998756688      -0.71116499940077
C         0.37451590502854       0.38160860362115      -1.97917950977538
C        -0.55398408325746       1.36337734647080      -0.05549571514173
C         1.59558942909321       0.18714124235846       0.16485302907838
C        -0.88635444558282       1.09379374442253      -2.45803726891177
C        -1.51426876237974       1.70380458265322      -1.19444933954244
C         1.45945081169692       2.37285754320704      -1.05549920320522
C         2.89115040682710      -0.28286785491034      -0.48918294664934
C         2.06521404824597       3.10724319231258       0.12873630055602
C         3.71373060852879      -1.08896883603757       0.52347239339934
C         5.03048205436382      -1.56526703135879      -0.09964426624289
C         5.86482349350738      -2.34969295634183       0.90981538594219
H         1.19642187622385       0.43014891501107      -2.69185952334099
H         0.16637093384476      -0.66173287763143      -1.73165567993990
H        -0.87036459488564       0.45616519246162       0.46372794101850
H        -0.43653043855740       2.16761510846168       0.66996906011647
H         1.80260512472285       0.74100136483503       1.08288494474988
H         0.97028106995878      -0.67406041909645       0.41759268775050
H        -0.63995314869231       1.87227419837637      -3.18245571827552
H        -1.55997636518874       0.38338935579121      -2.93943965434964
H        -2.49848498739748       1.27888616894763      -0.99073244286086
H        -1.62766281695578       2.78427346299085      -1.29983577339792
H         0.71825507210878       3.00295305393872      -1.55087967209126
H         2.23854302283389       2.13026305673168      -1.77620235982142
H         3.47666073225531       0.57219671660930      -0.82374355932020
H         2.66797456197289      -0.90409937190524      -1.36048713213871
H         1.34533142355654       3.26463305288245       0.93089139959545
H         2.93188031462509       2.58101201288534       0.52214708121639
H         2.40432751428099       4.07783896590870      -0.23210393040057
H         3.12913344207506      -1.95022480675583       0.86700116199789
H         3.92819313854455      -0.45918901856390       1.39311503933876
H         4.81416567197440      -2.19524220001900      -0.96866226877749
H         5.60030601540234      -0.69878250903461      -0.44415831435806
H         6.79669896261066      -2.67184686241984       0.44600114754205
H         6.10398138306049      -1.72655446597314       1.77248246945918
H         5.32408978833288      -3.23209451425786       1.25648165822561
P         6.92349814864330       3.00496302370911      -2.56608894454964
F         8.44213413042211       3.64352029124850      -2.42469045906631
F         6.20047732957416       4.41723980010451      -2.01717079817534
F         7.54485511651365       1.54939826978351      -3.12695282935466
C         6.92493654310166       3.76371059459066      -4.36523393162458
C         7.12470497201816       2.37572935554832      -0.67089285557718
C         5.06737687649220       2.12701586108428      -2.67078125555073
C         7.78712066622071       3.07700360332897      -5.45684173147616
C         6.03967167472483       2.62076528891080       0.42711509680726
C         4.11488822215677       1.86436033339235      -3.86884792284875
F         7.33881989203485       5.03728680599492      -4.28953236220765
F         5.66047897695818       3.79419389981342      -4.84279155934850
F         8.22759495414389       2.95006872026530      -0.16329843928291
F         7.33787474764365       1.04428036243395      -0.64116967961284
F         4.26116560689448       2.78326156088859      -1.78364132654380
F         5.25304945742123       0.89175201261493      -2.13967325956226
F         7.79638844217463       3.81619341491637      -6.56958644851233
F         7.28714253825193       1.88266622792069      -5.77197675817986
F         9.04425050184417       2.91724661884672      -5.06310781155600
F         6.59761842398863       2.52604708801812       1.63561825783920
F         5.44220420135559       3.80541604127155       0.35945530155006
F         5.07240858380458       1.68541998881482       0.38654338343873
F         3.41255317610091       2.94321753014154      -4.20095939978117
F         3.18841938116271       0.94035957940054      -3.47880468523733
F         4.71062908775476       1.37741634351900      -4.94005181103180
