66
C18H28F18NP optimized with ADF in AMS.
N         0.47778542120913       0.47635055608871       0.79569046390129
C        -0.17528890438847       1.68335283613825       1.47064237900949
C        -0.55928264514435      -0.44485374938329       0.18507956080670
C         1.26029383635725      -0.28708413427106       1.86043689553521
C         1.39584645460412       0.97469896965503      -0.31205845143948
C        -1.33929749728132       1.37380494486630       2.39852174570014
C        -1.48499751279056       0.18872851471374      -0.84305744834652
C         2.10181542208006      -1.45634281199335       1.37829134516371
C         2.61703078401647       1.75633788964805       0.13515021905235
C        -1.84778786399128       2.67746637416509       3.01875516819259
C        -2.54998218912729      -0.81960777652061      -1.27593687585034
C         2.94182540180004      -1.95934706803748       2.55707444717249
C         3.34646093510358       2.30231938457064      -1.09224314024129
H        -0.49884183504157       2.35238149914838       0.65867329790646
H         0.62565498818908       2.18321776027082       2.03049948446921
H        -1.13909306453606      -0.85455213441807       1.02530912740488
H         0.00083295310939      -1.27440811071539      -0.26960173671799
H         0.51413976896313      -0.63043589031996       2.59057620885814
H         1.89070675604581       0.45555011191056       2.36438136144780
H         0.76468121845854       1.59930940100905      -0.96052445168310
H         1.69239027336178       0.08490251088145      -0.88904877288906
H        -2.16268008601424       0.88654532848543       1.85065380063843
H        -1.02272883785938       0.69794436821451       3.20757456921179
H        -1.97798768548459       1.08049116669700      -0.42418302513317
H        -0.91575418041861       0.51528161678489      -1.72750818955388
H         1.47277753625458      -2.27615361561861       0.99235487517602
H         2.77858132673814      -1.14665976616602       0.56547746014712
H         2.33787483614730       2.59097817655598       0.79343955379934
H         3.30020647593738       1.12066000771943       0.71587976753487
H        -2.70972630247776       2.47623964414066       3.67058625361982
H        -1.06685084339259       3.15312204563225       3.62650581468019
H        -2.16750576187629       3.39027189744815       2.24175879560641
H        -3.21676118888246      -0.37454375414108      -2.02791090494015
H        -2.09375597138717      -1.71836255798221      -1.71949359914132
H        -3.16828579547262      -1.13823994666808      -0.42230509114407
H         3.56196404798744      -2.81374059090860       2.25191471986494
H         3.60239025819309      -1.16402858714570       2.93425077632448
H         2.30130886447301      -2.28200333246827       3.39218589953530
H         4.25135901023747       2.84025850012354      -0.77926793645114
H         3.65292482538894       1.49294569532902      -1.77480984984535
H         2.71230794790157       3.00476642170787      -1.65600857671748
P         3.55567932144280       2.50152715302447       4.68224024420451
F         4.12866719791191       0.98318498131554       5.05184391105216
F         3.97754073494405       3.15430685272155       6.13759007285712
F         3.09778320754033       1.90174780378062       3.15380308096595
C         5.40002597960061       2.82795903651638       4.05965694643624
C         1.81371416824598       1.85784229920229       5.54710515403178
C         2.67534916506828       4.23166004719279       4.08528358121543
C         5.94277610531694       2.08544001031873       2.79853881935954
C         0.86685962863814       2.71366787552165       6.46368976914129
C         3.15959724392268       5.23830403533197       2.98363915098115
F         6.26424047823632       2.46103233570693       5.06562379766085
F         5.63062270883429       4.16727707401009       3.82265879819077
F         2.15244700835503       0.82622730142531       6.39340728697698
F         0.96343353823311       1.30011082381201       4.58808810518972
F         2.42132884039781       5.02016027616952       5.17933968121418
F         1.43555568534850       3.82376259049025       3.57937615461619
F         7.27138309516925       2.34599137401940       2.65725718134307
F         5.33515199335038       2.49606106732420       1.65317818246141
F         5.79693338518875       0.74125005318661       2.88905127448276
F        -0.05586683384073       1.86831957269672       7.02225683125556
F         1.54850051767600       3.30128678066444       7.46658894415094
F         0.15785417549180       3.66201106043930       5.80679826046693
F         4.06751031715736       6.11918218214502       3.44424840914583
F         2.08700992995455       5.97049498031386       2.55037596142043
F         3.66279287592518       4.59878701512330       1.89735413621437
