49
C13H16F18NP optimized with ForceField in AMS.
N         0.11820606620024       0.15657003666071      -0.00386627912867
C        -0.49143771822182      -1.15146796822689      -0.32969290238468
C        -0.91723267004855       0.82985512562005       0.81322740492276
C        -1.99512348725933      -0.93229379353187      -0.44929655246614
C        -2.27601537775692       0.35636047498160       0.30721309464640
C         1.37703860660611       0.01396352949012       0.78650582531205
C         0.35625816312140       0.94457213548799      -1.24310296792037
C         2.50847334241345      -0.71627607830370       0.04527074088283
H        -0.31735658036658      -1.88414207681595       0.49265074233163
H        -0.07980391615403      -1.59366324373289      -1.26513220989016
H        -0.83579988179528       1.94027516615580       0.77243565838713
H        -0.83855673461519       0.53408872072321       1.88580685136745
H        -2.56056919399386      -1.78740622719645      -0.01913330413199
H        -2.27445225588871      -0.81209939029943      -1.51758991151977
H        -2.71346337446382       1.11572208995172      -0.37785576150077
H        -2.97876841543990       0.18273420063143       1.15114466646976
H         1.75210660144422       1.01839781076686       1.08824285412066
H         1.18246590172907      -0.54680959525465       1.72917688007272
H         0.97701765070425       0.38100272423140      -1.97188456160990
H        -0.59763314300510       1.18971489469606      -1.76049724304166
H         0.87103763488060       1.90323576111127      -1.01122990154683
H         3.36188869707471      -0.86415415671376       0.74007570740437
H         2.17852597854940      -1.71423358357514      -0.30903704153789
H         2.87835806642143      -0.11669567372836      -0.81139830054823
P        -1.27270803094202      -3.15033997912807      -6.29053432757143
F        -0.62934200853028      -2.07272002673727      -5.10786736208404
F        -0.73699642987673      -4.73128111480160      -5.86458690180789
F        -1.89488216181544      -1.56110565659077      -6.51032859272774
C        -2.40920869103489      -3.66036649954232      -4.81365601614000
C         0.59126155267675      -2.97680600176454      -6.78647060686827
C        -2.10346704595280      -3.44020441046564      -7.99573067904034
C        -3.44362022508780      -2.60736230334589      -4.36137027369759
C         1.12763875180396      -3.90861635785448      -7.90615439977493
C        -3.63406496724402      -3.30637295555826      -8.08346303035831
F        -1.61732021712505      -3.93235899211055      -3.70331688197976
F        -3.08967217036852      -4.82879630833367      -5.11778388427011
F         1.39260735657592      -3.21222212434558      -5.67341365706456
F         0.81433835210571      -1.67228875609769      -7.19859030101421
F        -1.77631826521883      -4.71494765478010      -8.42224329792851
F        -1.58429983263062      -2.53093315190562      -8.90185610535902
F        -4.14714633702305      -3.10736280443024      -3.27964448754986
F        -4.35005608477035      -2.32024673559219      -5.35626491066309
F        -2.82610239580496      -1.43586472898311      -3.96622476964999
F         2.50475110331839      -3.78229502486182      -7.96159251439430
F         0.83954815172980      -5.23881468900137      -7.66593883158046
F         0.63863424540869      -3.55668903806983      -9.14703446844474
F        -4.27241060693024      -4.16032957209778      -7.21004045346485
F        -4.03396783919009      -3.64609938789794      -9.36393310999711
F        -4.03404718550929      -2.00249043143282      -7.85585418035954
