34
C8H15F2N3O4S2 optimized with ADF in AMS.
H         1.25568149758776       0.82742780818718      -4.21677285185424
H         0.05092609823417      -0.51912932334747      -4.28071168256591
H         1.81055650598049      -0.85420336693335      -4.43783791069698
C         1.05706629326105      -0.21933777080148      -3.95892514047015
H         2.04628086254877      -1.73229192528730       0.33269424455134
H         2.09740454567208      -2.31936155164136      -2.39033385662611
H         0.48843897217279       1.56492243769839      -1.81118372803038
N         1.17985997859983      -0.37108893692016      -2.51151219511383
C         0.84598867079129       0.56053164666614      -1.60690957646109
N         1.14403184825062       0.08683197273529      -0.39196283755904
C         1.70306282373763      -1.16598527096106      -0.52312033830597
C         1.72628229908887      -1.45419125979053      -1.85609328252545
C         0.94617752759543       0.80731321838580       0.87248781604529
H         1.92490903322785       0.85594004196024       1.37363536521733
H         0.67083126151426       1.83539851148715       0.60268676650672
C        -0.11439752117446       0.14499512241268       1.74154560331047
H         0.18857608396745      -0.88722635970127       1.99637669697920
H        -1.05647175826296       0.07093379327667       1.16851574415458
C        -0.34433759402943       0.94401251131714       3.02332212994635
H         0.61090831173511       1.03281926882800       3.57124765488401
H        -0.64509786017868       1.97256481810885       2.75552490038181
C        -1.40132591349312       0.31217924901779       3.92397432150193
H        -1.10758874985320      -0.70607707719524       4.22625297561374
H        -2.37134215000546       0.24375784584372       3.40607609320327
H        -1.54903875235888       0.90559911974032       4.83822632048717
N         3.25978300558024       4.15239297401741      -1.83823771633189
S         2.24022203410208       4.20970763740815      -0.60666469686566
S         3.40015484223507       2.82327630848965      -2.70949986733916
F         2.99292464741451       3.28852836671074       0.56219782198342
F         1.95360472259365       2.81045984179433      -3.59779118085584
O         2.23375858727581       5.54615868958411      -0.06261553615419
O         0.97450079798280       3.49626455029783      -0.80029457314240
O         3.32049560764341       1.56142763639193      -1.97985713556341
O         4.41656541776313       3.01818032821972      -3.71647643000497
