42
C12H21F3N2O3S optimized with DFTB in AMS.
N         0.07271495463756      -1.81019243282206       0.35131993947280
N         1.95533713958392      -1.62904449773792      -0.68024782258248
C        -0.89418055428353      -1.97114058686365       1.43579273330169
C         3.39866358858717      -1.56665259263215      -0.91825740233240
C        -1.90367967374024      -0.82353191581834       1.47653588004989
C         3.79707800651802      -0.28906825651326      -1.65682095971479
C         1.39444217073163      -1.84107960197021       0.50650309153336
C        -0.21724167328933      -1.55700473625565      -0.96398150125354
C         0.96986647537991      -1.44298959789079      -1.61371076803680
C        -1.23914158387488       0.53675999257298       1.70872749867348
C         3.49206082430633       0.97482425702482      -0.84577065569190
C        -2.28152082168100       1.64723083736305       1.80674072399692
C         3.90245848111388       2.23050552549055      -1.60999098997073
H        -1.41147080832917      -2.92504285556271       1.28798761185571
H        -0.32508397083398      -2.01485343416862       2.36747732693093
H         3.88126327500753      -1.61174376351586       0.06202582179663
H         3.67853406580286      -2.44829393504938      -1.50411378118095
H        -2.59925411966196      -1.03947162819556       2.29360312586743
H        -2.48020702644663      -0.80678877299561       0.54595973211339
H         3.28750055935501      -0.24775246950320      -2.62536663939454
H         4.87231690498294      -0.35420263603245      -1.85145750898048
H         1.92211751721579      -2.03635481549280       1.42452838642071
H        -1.22608236416322      -1.48461539797079      -1.32981047581026
H         1.18321822118652      -1.25354248447773      -2.65069001509399
H        -0.65137233410048       0.50333640038587       2.63003285162573
H        -0.55126045512437       0.74931962417875       0.88616290426940
H         2.42224894917621       1.01470776880701      -0.62239358299101
H         4.02899552881774       0.93334692723635       0.10495970227004
H        -2.96221300477245       1.46427658633454       2.63952872404939
H        -2.86597357235131       1.70982600203934       0.88710157582049
H        -1.78448825042107       2.60336793153279       1.96841655775999
H         3.35929108296026       2.30345469299706      -2.55409472337023
H         4.97219119283470       2.21828754164775      -1.82434031827262
H         3.67888325491818       3.11294483880498      -1.01106892219120
S         2.86300959013993       0.20367386393787       2.53998248949164
O         3.66940701491195      -0.94961905643401       2.15820499414713
O         1.71373923572794       0.40430885716069       1.65898840431023
O         3.59344074966800       1.39076426678403       2.88581254558759
C         2.03160752936791      -0.37547529188260       4.09314018262977
F         2.87660052874248      -0.64293468984660       5.07431608844645
F         1.36452162734848      -1.51053710801369       3.80170755651487
F         1.13648852395075       0.50404240244721       4.52908086903225
