25
C9H13NO2 optimized with DFTB in AMS.
N         0.34667544712778       0.08076171977179      -0.44664698855182
C         1.26385724627829       0.28018188910754      -1.55834246888271
C         0.04757324494743       1.13150612740455       0.39938673899238
C        -0.15284086961811      -1.17082893365577      -0.15988713374267
C         2.71412292507218       0.22756651540185      -1.07506367555290
C        -0.71130073867764       0.97854056797928       1.48798401699624
C        -0.92020286089368      -1.40911042264304       0.90944882063191
C        -1.19798095901712      -0.36352284223713       1.94432462875486
H         1.08662702414955      -0.50442085146233      -2.30057697580870
H         1.05330523770341       1.25086857289014      -2.02046976293166
H         0.42607277108709       2.09929355408146       0.08793429357162
H         0.07515529068667      -1.94198432608819      -0.88826637108008
H         2.88582625488725       0.98809233408766      -0.31369565659532
H         3.38796548571407       0.40668401117090      -1.91229929914848
H         2.93276413273239      -0.75048872905039      -0.64672540078215
H        -0.95102127772773       1.82834445373408       2.11344866376316
H        -1.31572523208232      -2.40099226002655       1.08587427883071
H        -2.26126894537884      -0.32991040609596       2.22722830358675
C        -0.05447782324198      -0.69455161733209       5.48585919435349
C        -0.86425162637902      -0.19469135094427       4.30803993537153
O        -1.74958577802423       0.61536138543555       4.40335349252102
O        -0.47600404800911      -0.76027643643235       3.17403374616039
H         0.68913795003923      -1.42044709021063       5.16697650129098
H         0.43592539020412       0.15474386383310       5.95903982540036
H        -0.73089913337966      -1.14590986661921       6.20981689875108
