28
C6H11F2N3O4S2 optimized with ADF in AMS.
N         0.83995063405298       0.07662696316111      -0.09786957111069
N         2.68196746057799       0.11792389454247      -1.24140250737512
C        -0.20152140638005      -0.35011450214658       0.84983975776528
C         1.91639586192372      -0.64034627552099      -0.44618366269361
C         0.93327835675988       1.33142098944381      -0.66529528619098
C         2.09298008918734       1.35736812654551      -1.38123886954792
C        -0.15273556298945       0.47336900650998       2.12688094996237
C         4.01004567952764      -0.24973158142621      -1.72932600017945
H        -1.17050106224080      -0.26303224039079       0.33294888722508
H        -0.01305137561729      -1.41029988993950       1.06366176465836
H         2.17769178466682      -1.63549237839511      -0.09981725249343
H         0.17510500447432       2.08898431204173      -0.51607597539427
H         2.54544275942224       2.14188922449006      -1.97452897016360
H         0.83902077532434       0.39791254701505       2.59195408894450
H        -0.90259990808114       0.08662131820612       2.83112767101652
H        -0.37667032047952       1.53300492167665       1.93473216962136
H         4.20216889507168       0.30059497475706      -2.65718461482461
H         4.74932925472814      -0.00265051923268      -0.95705718450137
H         4.03935833450553      -1.32905769845432      -1.90801089512261
N         4.63671663477118      -2.23898020690623       2.56355631815650
S         5.14930056281025      -2.62991184569452       1.09178473927483
S         3.43071159908312      -1.21204441107036       2.73000812141853
F         6.01950653586398      -1.28496357655960       0.63371810259144
F         2.08281500216930      -2.13446904878905       2.27355216824588
O         6.13587801506199      -3.67642664719942       1.19933097716799
O         4.10526025551911      -2.71005555938930       0.06942016438596
O         3.37910363107073      -0.11130824352876       1.76793454198410
O         3.19379950141593      -0.94942898344610       4.13086714567896
