68
C18H36F6N2O4S2 optimized with ForceField in AMS.
N         0.00130629733553       0.00077664374650      -0.00113798231940
C         0.84842128124057      -1.02732177672299       0.70101552815950
C        -0.87193688227163       0.68214347873432       1.01988509859030
C        -0.82285656793046      -0.69711923949599      -1.05102769145475
C         0.85249325890181       1.04412672748352      -0.67534461763486
C         1.89045245870834      -0.48044954177927       1.71041366976921
C        -1.93872309584608       1.65928347320324       0.46034770715116
C        -1.89011455106431      -1.69385933680198      -0.52849722033348
C         1.93935715204587       0.51284309390540      -1.64525944228764
C         2.65543957505435      -1.63725678668020       2.36823035726015
C        -2.74104609427381       2.28940333781575       1.60680902709531
C        -2.63776829088575      -2.33926470835984      -1.70286109344517
C         2.71857429693616       1.67990938609321      -2.26549155088462
C         3.69165848758474      -1.12405384353736       3.36353965961924
C        -3.79102665787778       3.26455614116848       1.08203049561686
C        -3.68962268051600      -3.33133925631899      -1.21563242579526
C         3.78639869230805       1.18273124670223      -3.23531373610272
H         1.37904380006738      -1.66830442687897      -0.03755978002915
H         0.20268510518668      -1.72059485863407       1.27554368754592
H        -0.24733556057947       1.28116539943579       1.71638741127881
H        -1.38669857373684      -0.07036161371766       1.65810211358417
H        -0.16295857774919      -1.28436282844351      -1.72476092866174
H        -1.32894405707926       0.04542164120475      -1.70739972899190
H         1.34637433686217       1.69331891744125       0.08168367023355
H         0.21426111386023       1.72537318538307      -1.27755453970083
H         1.39140121180765       0.09520152971404       2.51574157961709
H         2.62424912524463       0.17891042047783       1.20411576143222
H        -2.64746347907690       1.13399422789544      -0.21120497580583
H        -1.45625856250252       2.48145417294360      -0.10571794295428
H        -2.63240275506879      -1.18141678206916       0.11620451478390
H        -1.41364334642142      -2.50675572311963       0.05579349243594
H         1.47636692902358      -0.06223668010857      -2.47237880009470
H         2.66017096480489      -0.14263140608878      -1.11612226136446
H         3.17275406505496      -2.23692309658873       1.58804646041802
H         1.94330285277735      -2.30102089385219       2.90598399221419
H        -2.05375506080180       2.83865969583408       2.28711702466680
H        -3.25038288998377       1.49218989058686       2.19076666557210
H        -1.91597946227544      -2.87747159658547      -2.35578490866136
H        -3.13837569507237      -1.55183206789071      -2.30733602126469
H         3.20908123504656       2.27213893133051      -1.46255501212822
H         2.01918735329422       2.34626872942448      -2.81654514807807
H         3.19736808239703      -0.54152440845937       4.16996990183458
H         4.43581063733016      -0.48041583586933       2.84801719866660
H         4.22279152031058      -1.98461004710636       3.82212654168474
H        -4.51114156703999       2.73752619890595       0.42081653917333
H        -3.30535657784446       4.08744121486228       0.51538769816207
H        -4.34840686985125       3.70377460255653       1.93612013308630
H        -4.44268578381818      -2.81543445400548      -0.58299716019803
H        -3.21129511269357      -4.14472956588965      -0.62938600315328
H        -4.20703968765675      -3.78108173638036      -2.08915483063050
H         3.31882896945793       0.60798195535714      -4.06303820552945
H         4.51774233349079       0.53611831024572      -2.70560452900572
H         4.32683903857859       2.05090335187757      -3.66783130573408
N         0.51201903027697      -5.56364833419885       3.79386220577886
S         1.79236177198807      -6.08250506551248       4.67710012011431
S        -0.90205471287112      -5.08497586511688       4.47267035065387
C         1.70791094843716      -7.85418044964874       4.84874440973216
C        -0.93416948167543      -3.30709190871807       4.56008989338509
O         3.06301959479651      -5.72554442436409       3.95990004658422
O         1.78963390463648      -5.44660136205224       6.03965515358322
O        -1.05429043953423      -5.65802414699783       5.85449197498026
O        -2.04288797598000      -5.54485795916789       3.61048207362116
F         2.79820266615652      -8.30230930301196       5.57018297659275
F         1.71588457517745      -8.44026616778856       3.59727380910232
F         0.54672303721306      -8.20491391046104       5.51020083196637
F        -2.10921350825741      -2.89278921735946       5.15740709715113
F        -0.86362966997763      -2.78355680217323       3.28512305541295
F         0.14163221962061      -2.85673903457360       5.30101652873350
