23
C7H10BF4N optimized with ADF in AMS.
N         0.16180037023401      -0.08704938857122      -0.50399031087785
C         1.63115493567279      -0.10675800384779      -0.70439446774179
C        -0.48541557261363       1.09537943326899      -0.50024017717388
C        -0.51555085884747      -1.24839911517515      -0.41893595109064
C         2.36053481214134      -0.00871769621874       0.62429299787909
C        -1.85494644029421       1.14658058837056      -0.33359158790195
C        -1.88663036654221      -1.25133169693867      -0.24803580976512
C        -2.56763743415724      -0.04077303362665      -0.20798956665224
H         1.85873792261231      -1.02695064772288      -1.25830777100545
H         1.86049257515478       0.71852449799808      -1.39160951846330
H         0.13026929918833       1.97902366667109      -0.64635215670874
H         0.07549571214834      -2.15637859258306      -0.50324646181257
H         2.11346210154445       0.92588662792059       1.15012769710359
H         3.44442954363856      -0.02258257731331       0.44106216102490
H         2.11115013187243      -0.85440408879566       1.28263206888367
H        -2.35434000300982       2.11394787689010      -0.35100102103521
H        -2.41145581861238      -2.20390165857802      -0.19771705822253
H        -3.65371311235120      -0.02265856047096      -0.10697529297590
B         0.01782494575424      -0.21548816118352      -3.73578939903873
F        -0.54324629764319      -1.32834870955297      -3.00577275012308
F        -0.40225865151869       1.00572271341716      -3.08504629812563
F        -0.42255980322181      -0.23304623670054      -5.05864241512199
F         1.43886053455024      -0.29777386725740      -3.64017335125466
