49
C13H28F6NP optimized with ADF in AMS.
N        -0.23128917382548      -0.26758671736894      -0.55834051880247
C        -1.61548874111966      -0.02740594610444      -1.12459542357358
C         0.39622437136525      -1.45458569233657      -1.28283396350273
C         0.60017062727905       0.97755948992715      -0.84124432478954
C        -0.27243083318665      -0.56091445327013       0.93474371186420
C        -2.51251942099608      -1.25137338791948      -1.04693596511780
C        -0.47257738929488      -2.69849926117160      -1.24010346394749
C        -1.87977450067370      -2.43859259920424      -1.77167000937004
C         1.97773948558000       0.98451342596890      -0.20778549706957
C        -0.87855346334859       0.54381424827604       1.77479349602990
C         2.82610577784949       2.13577546432169      -0.75381043751575
C         4.20213845237102       2.20573832869879      -0.08267950405664
C         5.08407141593115       0.98185291004356      -0.33580488318745
C         6.47004710842593       1.12770307876786       0.28759126053939
H        -1.45980573523595       0.26432774826023      -2.17640433776675
H        -2.04094351430310       0.83308946134716      -0.59036306108996
H         1.37113480483489      -1.65023076930313      -0.81685689153188
H         0.54323855619446      -1.11349324137505      -2.32123143071889
H        -0.00375925361765       1.83468661113556      -0.50546135291348
H         0.67280774625678       1.03274560689738      -1.93971115718449
H        -0.83401606526652      -1.49406904661908       1.05343515412963
H         0.76181912680941      -0.77965390758510       1.23383950259533
H        -3.47831626318675      -0.98013694962676      -1.50436376611642
H        -2.72512704712760      -1.50532461785550       0.00581067478727
H        -0.49107035899680      -3.10455968410965      -0.21671748144935
H         0.04500001037843      -3.45863539150114      -1.84688678349778
H        -2.50842128666814      -3.33592701806168      -1.65771883983006
H        -1.83238470473525      -2.21253315794446      -2.85387266529217
H         1.90083594981669       1.08414239357866       0.88674927076472
H         2.49314384011732       0.03259097484273      -0.39237363991599
H        -0.33101352474123       1.49258431136069       1.68518875742312
H        -1.94342798652312       0.71877547603808       1.56112124792278
H        -0.80442651191348       0.22897342681995       2.82648310378158
H         2.29568122355893       3.09597089912265      -0.60681730659644
H         2.95864149282270       2.00901976970693      -1.84485645894333
H         4.06607849279991       2.33577609874545       1.00753474722314
H         4.72505773849769       3.11075845233334      -0.44130981792260
H         4.61114379501742       0.07374150189341       0.07068605933913
H         5.18058473512180       0.83026886461037      -1.42807092796708
H         6.39341950777747       1.23468083195922       1.38125512595809
H         7.08910236316406       0.24030547021426       0.08606498129777
H         6.99760590643414       2.01236819334215      -0.10621721673836
P         3.17450809122636      -2.74160899799353       1.53073109972412
F         3.24677271040560      -2.15932777558683      -0.05570069839401
F         3.60197392814785      -4.22828426664023       0.99670605902765
F         4.74107459800348      -2.31203940489151       1.74674912983942
F         3.04911828483379      -3.27142767204251       3.07301810778850
F         2.69226881292697      -1.20370900800649       2.01506642382937
F         1.55750172801257      -3.10799161739418       1.26504951033699
