63
C17H32F6N2O4S2 optimized with ForceField in AMS.
N        -1.08884720308496       0.82694880399293      -0.17935925781247
C        -1.57611296736202       1.86668929316603       0.78529126533719
C        -2.06410290612224       0.73450275369072      -1.31419739015903
C         0.21184041356861       1.29300430795639      -0.77292140308584
C        -0.93341241139009      -0.48692208682866       0.53726558564861
C        -3.02235597180067       1.63971886356771       1.27466133906324
C        -3.50900817231048       0.44176276889511      -0.87981277306864
C        -3.99306209212377       1.50158735038062       0.10468647929111
C         1.41607938030732       1.36574843861234       0.19938641674299
C        -0.34883038807244      -1.64755659176570      -0.30376368368761
C         2.66303926074181       1.88175820293415      -0.53265382936855
C        -0.22356724621974      -2.91755535039298       0.54871202808394
C         3.88121230955106       1.92312982417863       0.39722465922918
C         0.35961662966833      -4.07719886107598      -0.26638187300859
C         5.11571409063486       2.43649629203182      -0.33919107758627
C         0.47343751116755      -5.34126738181048       0.58054579915508
H        -1.53768818071146       2.87879770383135       0.32006406339907
H        -0.92982885428747       1.90598371711699       1.68840871981534
H        -1.75188814212132      -0.02368546943183      -2.06201915472965
H        -2.09058781070765       1.69989140103035      -1.87036135815544
H         0.08174821162078       2.30798722363183      -1.21556434256240
H         0.49909106678509       0.64426420366369      -1.63058105014006
H        -1.90507542709736      -0.83820933691744       0.93448409004038
H        -0.30090623190510      -0.35493855694220       1.44246469151551
H        -3.33333429082971       2.50905408464684       1.89347847069053
H        -3.08517054113851       0.74636097349829       1.93011647325253
H        -3.60175467149933      -0.57309186670263      -0.44171851460474
H        -4.16446401556279       0.46351363020353      -1.77740641075349
H        -4.08340016798802       2.47937116296188      -0.41811187939458
H        -4.99864486748098       1.22162003220111       0.48595905978208
H         1.19621922781074       2.05233346397932       1.04218697983043
H         1.65100100261889       0.36164483278359       0.60773427411316
H        -1.01266263499516      -1.87552093802392      -1.16197531046703
H         0.65862836858706      -1.38905755682819      -0.68792579839685
H         2.46389466156312       2.90479407865991      -0.92154011244997
H         2.88615752023280       1.21442965292058      -1.39448292268879
H         0.43752582773340      -2.71351700347923       1.41994051798314
H        -1.22870416881263      -3.20625397665086       0.92860517443436
H         4.09324741569206       0.90252629162082       0.78429798608501
H         3.67282366445868       2.59186307434731       1.26060703346048
H         1.37015829277738      -3.80209556743765      -0.63972739766720
H        -0.29434109548611      -4.28802859051716      -1.14056103824783
H         5.98267651699456       2.45492548599533       0.35427548357254
H         5.35963660032978       1.77080205518769      -1.19464133360643
H         4.93987692360445       3.46680920164064      -0.71573489039376
H         0.90051852095982      -6.16235317476751      -0.03278959697273
H         1.14034590878550      -5.16377671712902       1.45113534722840
H        -0.52886451195027      -5.65355324866177       0.94404125918788
N        -2.17860609608000       4.80371449922176      -5.67018351219353
S        -1.61823638883247       5.90375550046196      -6.74858141576080
S        -2.22994075870552       3.19586851215248      -5.98626367185354
C        -2.98038825884463       6.52610886534222      -7.71267873952785
C        -0.80305656676306       2.41365066132564      -5.26342125075511
O        -0.98899321525142       7.04736346687668      -6.00494698221308
O        -0.60109533175406       5.27909111891922      -7.66304388705500
O        -2.24263293432684       2.94355020865638      -7.46860718294928
O        -3.46754544921488       2.61116539791580      -5.36709290267446
F        -2.52009695508184       7.47446876506086      -8.60613206845943
F        -3.91386262768218       7.10357828546075      -6.87314911288205
F        -3.57136190170321       5.48978466691822      -8.40957232432327
F        -0.84528154034621       1.05441280465601      -5.50897268751492
F        -0.79812987953799       2.63293645277939      -3.90026408120757
F         0.34791270219095       2.94380965528836      -5.81359227946435
