26
C6H11F6N2P optimized with ForceField in AMS.
N        -0.56260616177013       0.20255261244988      -0.35905378281640
N         1.62500658068864      -0.04945578745656      -0.06201610708430
C        -1.96096323667508      -0.09433101835676      -0.65678254606501
C         0.47387870559237      -0.65651003058072      -0.40875410729484
C        -0.04925498945009       1.38871207012945       0.02621072677874
C         1.30973169900158       1.23148198469257       0.21064866202712
C        -2.77427697587431      -0.15807544715667       0.63059553147875
C         2.94597145877779      -0.65625911236878       0.02588960715155
H        -2.37413998496444       0.68996267519186      -1.32708566947276
H        -2.03925638900534      -1.07184768152631      -1.18062730816101
H         0.38983360524576      -1.70203116663152      -0.67908731503996
H        -0.61860152781795       2.29922604400958       0.16193051982200
H         2.01278225975374       1.99248888470282       0.52449018466583
H        -2.37059756904288      -0.95230816476692       1.29457435773056
H        -3.83281626525586      -0.39396071901950       0.39260136978876
H        -2.73348324355168       0.81663673569648       1.16126718980774
H         2.89503395540200      -1.73360355871424      -0.23995654392672
H         3.64025858323547      -0.14515589618408      -0.67359475651580
H         3.33205415583303      -0.56006765237176       1.06254449401105
P         6.82598375860736      -3.06596419334203      -0.70217313063999
F         7.07341552863227      -1.41204407356889      -1.09276564674804
F         6.05361978898010      -3.13863126307819      -2.23430850410766
F         8.34878528541286      -3.54030346874177      -1.33793869167891
F         6.48775686991481      -4.73297119239762      -0.46653143692257
F         7.62237507729767      -2.83377319016859       0.80134913585064
F         5.36054445343228      -2.73840545824172       0.12846472636124
