38
C10H22BF4N optimized with ADF in AMS.
N        -1.04777057497214       0.23248673975148       0.27779561385342
C        -1.26745435764832      -1.21881843674639      -0.16960538190499
C        -1.97456156830407       0.39228707918225       1.47269760053020
C         0.38426378578334       0.49971167421453       0.70766152904368
C        -2.63425182888348      -1.64382175499057       0.39581684460562
C        -3.21380781592785      -0.40077308865321       1.09828414617981
C        -1.44875696434157       1.16891954528841      -0.81334548111298
C         1.43283406059337       0.19314167225352      -0.34570071049068
C         2.82309650584640       0.25528628464277       0.29512345384300
C         3.93343264413148      -0.10676461398054      -0.68799973095604
C         5.31521237493582      -0.06753057711214      -0.03903282134066
H        -0.45330122335367      -1.81501955469326       0.26581986772146
H        -1.20740622304545      -1.23732179246399      -1.26579566098875
H        -2.12713589814134       1.46437837209920       1.66197106349487
H        -1.45497586922791      -0.09172595992516       2.31379438548227
H         0.55727135210433      -0.12456298892971       1.59599153963925
H         0.41291716333463       1.55950775657844       1.01342489340784
H        -2.45682909986776      -2.43622645628371       1.13639536992872
H        -3.30536304269248      -2.02806338503189      -0.38515290105981
H        -3.88109024709054       0.17444733399046       0.43528235938562
H        -3.78724784770075      -0.66432318724446       1.99875038179727
H        -0.80232772594007       0.99659553193678      -1.68185734184432
H        -2.49391374834011       0.97856951214555      -1.08641488721254
H        -1.32948261524020       2.20102373609509      -0.45650128452947
H         1.28196664470265      -0.82990160287652      -0.72734050213299
H         1.38055682542922       0.89650501965991      -1.19623671749398
H         2.83940115433806      -0.44322044941988       1.14898126539815
H         3.00334496733734       1.26829802936102       0.70174027237087
H         3.90521219329200       0.58249608899988      -1.55317589737622
H         3.73952449256024      -1.12059392381183      -1.08293070533876
H         5.53708544370636       0.93782931994979       0.35446585801998
H         6.10658779454465      -0.33237632780750      -0.75645990069693
H         5.36799648216982      -0.77535874805908       0.80345280364113
B         0.80190304550301      -2.40605973488018       2.62835001774356
F         1.07958694553508      -3.55853292034754       3.35348042933527
F        -0.61043049393386      -2.08717225554950       2.69286888930892
F         1.13224674140283      -2.58332832366425       1.23460237400047
F         1.52090187290097      -1.27403023177775       3.11317570954774
