23
C7H9F3N2O2 optimized with ForceField in AMS.
N         1.11363555475827       0.00561653102292      -0.00739656079388
N        -1.10840413077559      -0.00444866124007       0.00115079561115
C         0.00588841918329      -0.76220955364103      -0.00919948146735
C         0.68676719415892       1.28340945333252       0.00510104751496
C        -0.69273970844849       1.27628700420486       0.01417237105075
C         2.50018134846100      -0.44191954368880      -0.00345356000887
C        -2.49164128464814      -0.46162029646696      -0.00169323808913
H         0.01058547370603      -1.84559659794625      -0.01380298679901
H         1.32924060176166       2.15430165969613       0.01256440911522
H        -1.34424839177378       2.13823544100848       0.03928088477026
H         2.55268721817232      -1.55170765015166      -0.00554498841629
H         3.01909268671531      -0.05403287629552      -0.90531622214140
H         3.01142216059791      -0.05881215967909       0.90494872820351
H        -3.01153034212150      -0.07910804762433       0.90197707859926
H        -3.00691446539156      -0.07885350872041      -0.90800866629802
H        -2.53659865968074      -1.57161495887306      -0.00229444458642
C        -1.37494528924739       4.19125778944983      -2.47013830096255
O        -1.35623949941195       4.44492485413211      -1.27644129670163
O        -0.55276454653709       4.70925775641183      -3.20837014018668
C        -2.40685939462016       3.26011205583597      -3.03609671582421
F        -3.23716441725178       3.96090096115664      -3.89092928973703
F        -3.16918328266893       2.70123010381474      -2.02481646229376
F        -1.78143898533761       2.24696168516114      -3.73913354775889
