33
C9H10F6N2O4S2 optimized with DFTB in AMS.
N         2.22463860727807       0.45663332791903       0.61222306297191
C         3.26127728773022      -0.54879649610032       0.33459854914433
C         1.94992700895171       0.77569157940947       1.88632227442528
C         1.62973058999162       1.09395365949457      -0.40680932385093
C         2.72419252038301      -1.94694416319504       0.60479259603379
C         1.04023238006687       1.76765532060661       2.18067772965711
C         0.71156602216716       2.09501742763404      -0.16298304400136
C         0.41215198874626       2.44692579251836       1.14516428617599
H         3.56616907715315      -0.43512925998181      -0.70724174237953
H         4.11929420277403      -0.31787810902581       0.97296715627153
H         2.49192624243724       0.24125941589642       2.65576287349433
H         1.91960155876650       0.80450451313417      -1.40835981645381
H         2.42751650674034      -2.05153023114859       1.64799962463710
H         3.50747046643888      -2.67202552433308       0.39039278100091
H         1.86366372383425      -2.15585764573601      -0.03049987386911
H         0.85416933729906       2.02432526917025       3.21532667770423
H         0.25717785325931       2.60977307382977      -0.99963315382253
H        -0.28571567690512       3.24806832347474       1.35512843037052
N         5.51691341199470       1.55043497456237       0.86606784361698
S         4.50028457971753       2.61708638990931       0.24139303776597
S         6.21411247686904       1.94963676120949       2.26453595791327
C         5.43865076190127       4.15050182375379      -0.31258115637702
C         5.05500622173190       1.27800479326272       3.57857047241046
O         4.02445517281581       2.02201058529388      -0.99746329787159
O         3.47005654689379       3.10261225765318       1.14406563422389
O         6.31000176472176       3.35985913824614       2.52485580132282
O         7.37490331776682       1.12053518924266       2.41515510272959
F         4.94998589276355       4.52647776910219      -1.48543056079176
F         6.72153144886374       3.87948426910361      -0.44988456525834
F         5.27663526442426       5.13086497125729       0.54950917492531
F         5.66547940862766       1.17883868081736       4.74236273195022
F         4.64761360160753       0.04958217297455       3.21176670273309
F         3.96283466008800       2.01759410594476       3.72935199179740
