44
C10H20F6N2O4S2 optimized with ADF in AMS.
N         0.00500817110202       0.57500707719695      -0.06114089600211
C        -0.90599999745271       0.52439117225026       1.16141439347896
C        -0.77283178545203       0.95278113096252      -1.31628746466245
C         0.61922930010984      -0.79630746451943      -0.26212077725243
C         1.07587222367586       1.63805154768168       0.18348323609585
C        -2.13959689052573      -0.34388309981201       1.01574366784032
C        -1.53393819907240       2.25880399744783      -1.23867836192544
C         1.63597487228179      -0.89989670074792      -1.38306567746602
C         2.08079640296101       1.29975468535028       1.26391648997063
H        -0.27323659284129       0.15872499239252       1.98146493717076
H        -1.17264290275179       1.56552373996354       1.38719624536661
H        -0.02325768326540       1.00127568120945      -2.11761981291790
H        -1.43698066978480       0.10092240563848      -1.52488034364433
H         1.07260666185873      -1.06750581395228       0.70127961409993
H        -0.21953395829490      -1.48185217205148      -0.44274154723780
H         1.56935269170453       1.80254142349829      -0.78462384729449
H         0.53657992642226       2.55913932285821       0.43551742572593
H        -2.69368842076936      -0.27753601536633       1.96448154003227
H        -2.81505664387130       0.01267069492968       0.22604944794794
H        -1.91269180064147      -1.40615938565170       0.84598738007095
H        -2.02867649463032       2.40785068837253      -2.21090404613316
H        -2.30723224541875       2.26238342319964      -0.45969881840598
H        -0.87259488092722       3.11710610411841      -1.06561492601814
H         2.04128283148092      -1.92331299128611      -1.37333121917183
H         1.19227437697492      -0.73509205754361      -2.37394131824881
H         2.48025094701098      -0.20997055066147      -1.25121385224136
H         2.75345994140199       2.16604347493894       1.34823701378641
H         1.61473760144919       1.17366578137709       2.25068450752829
H         2.69795673256456       0.41953643780588       1.03195736413135
N        -0.41331124429634       6.05811828371616       1.54354983093127
S        -0.91599737526135       4.79386619026366       2.38020865129470
S         0.17976716775296       5.96744648221976       0.04883275497567
C         0.60765518912599       4.28114615594833       3.38284186260761
C        -1.33930364266334       6.25227523512384      -1.04142543398618
O        -1.86350316301069       5.22057659305784       3.39453969740246
O        -1.20690891310675       3.58073326942056       1.60001650634214
O         0.65322076610881       4.64445308704628      -0.38061213901546
O         1.01167907604359       7.13257574201202      -0.19297428269007
F         0.39236637653369       3.04154801966855       3.91857765760721
F         0.85569177211596       5.13737029228925       4.39115364454921
F         1.71569593169608       4.20129502973781       2.60022126722169
F        -1.00058593274779       6.01714797718176      -2.33737189190666
F        -1.78981748128868       7.51851154083378      -0.93982066851426
F        -2.34831038430125       5.40416678078056      -0.71313564074328
