34
C10H16F6NP optimized with ForceField in AMS.
N         1.74571864131300      -0.03088416689241      -0.52704056637630
C        -0.63005011692943      -0.01202635358762       0.09261530153241
C        -2.07221564788193      -0.02586980732980      -0.42434318338403
C         0.37829520230414      -0.06581938361716      -1.05941713140922
C        -3.06818284041043       0.03365654965271       0.73974014199632
C        -4.50694644215572       0.03178001870534       0.23529141717231
C         2.37378524399680      -1.19908607083223      -0.19142202226725
C         2.36080259926615       1.17277440324968      -0.31543497663664
C         3.64881839827432      -1.18002172531232       0.37992526776837
C         3.63545713282075       1.22751625449027       0.25425366768995
C         4.27931216498863       0.04242981156726       0.60675720460169
H        -0.46712033620265      -0.88763880409029       0.75880535300920
H        -0.45818755264382       0.91527471722855       0.68213171615132
H        -2.24475224657680      -0.95527185545160      -1.01082478493493
H        -2.23242648775468       0.84943755426239      -1.09180293931885
H         0.22037167979477      -0.99238246491475      -1.65607346236277
H         0.21137856041854       0.79317477648265      -1.74770944088096
H        -2.89734707179762       0.95741296997455       1.33455791547987
H        -2.92078214822428      -0.84570707796318       1.40433212343225
H        -4.68960421550104       0.91040624034323      -0.41990421555482
H        -5.20451200262396       0.07990695563110       1.09797037773440
H        -4.70887976117243      -0.90084979013440      -0.33102266814305
H         1.88347283814518      -2.15231692880984      -0.35062934774439
H         1.86015435254959       2.09880106300042      -0.57286903506687
H         4.13897386112651      -2.10575183977407       0.65268882108210
H         4.11497459837286       2.18206414085415       0.42898981862343
H         5.26251940578960       0.07154428903025       1.05856476773725
P        -7.21889748474323      -0.62210185296026      -3.63493751094011
F        -7.99419084765425      -2.15134222176091      -3.74392241220153
F        -6.22349797809976      -1.23839466249550      -2.37999367695557
F        -6.05298893540344      -1.12823456097897      -4.79080592010765
F        -6.43475291671207       0.90171412907311      -3.51190701786380
F        -8.21841254266350      -0.02570132667116      -4.89834429524217
F        -8.37448152680981      -0.11894345376916      -2.46734345121998
