42
C10H18F6N2O4S2 optimized with DFTB in AMS.
N         1.38975856453549       0.33350422767753      -0.28967034658858
C        -0.09179543854463       0.53028036504379      -0.43332719754236
C         1.66382855856232      -0.93059244005095       0.47589389996376
C        -0.83830369715848       0.50005307558923       0.89599865690526
C         0.94021711161397      -0.98307541436179       1.81276275622948
C         1.93894715224639       0.21009154411706      -1.69040671282210
C        -0.56421162723484      -0.80675807073068       1.63854305396524
C         2.00422002477353       1.50718919047459       0.38710045900800
C         3.44573308825944       0.03648462300485      -1.78962843065082
H        -0.45734797176160      -0.27505101909269      -1.07680623943503
H        -0.24556497208012       1.48552051656527      -0.94167307703757
H         2.73930038057891      -0.98603964693784       0.63997899304975
H         1.35240030298458      -1.76286737565593      -0.16043953958269
H        -1.90434117690633       0.59240689944902       0.67152038442271
H        -0.55450431803608       1.35374232061760       1.51693202325574
H         1.33519246931049      -0.22156227649081       2.48807608039370
H         1.16076174074361      -1.95726777774404       2.25424951270186
H         1.43691453020589      -0.64846778245548      -2.14460248975766
H         1.63024013605005       1.11465217800184      -2.22297594418781
H        -1.05265936484469      -0.78340750753720       2.61513867946067
H        -0.97686313998602      -1.64601895403637       1.06931364035604
H         1.52214782037563       1.66740686017242       1.34705470454846
H         3.05970233679792       1.30696407835140       0.55324770563119
H         1.87650955320134       2.38512284571287      -0.24363096744747
H         3.69256027049032      -0.05442228174818      -2.84736303644017
H         3.98013448934795       0.89194708781226      -1.38373644428699
H         3.78276464850307      -0.86144702250195      -1.27903792779734
N         6.02488483552939      -1.61093990149924       2.38827067275288
S         4.88773793788530      -2.72838267233555       2.20218163392436
S         5.61292782814109      -0.12721445196655       1.97760345345624
C         4.95088872621721      -3.22498453887138       0.38130398494473
C         4.59165823733561       0.57952734503051       3.40071217284341
O         5.30110636505968      -3.90689856378350       2.90611104897419
O         3.52487301870487      -2.25959223186041       2.38473233495108
O         4.70113520613025      -0.01971156634243       0.83888659399888
O         6.79603028875051       0.68397044483280       1.95339057577088
F         5.16697107347254      -4.52136087893878       0.26269615230568
F         5.89916281273791      -2.56994809114590      -0.26698190774270
F         3.78082559733065      -2.94326171348464      -0.20652301758500
F         3.34691868751706       0.83659344497777       2.97579373059999
F         5.11910550131222       1.71886742698424       3.81463187301166
F         4.52063610264758      -0.25684962834281       4.41705553027848
