44
C12H24F3NO3S optimized with ADF in AMS.
N         2.42162226195275       0.31239260602981      -0.19939398375611
C         2.82651535203205      -0.77911957261624       0.78008672281208
C         3.48896299263642       0.19076694216232      -1.28055162981541
C         1.05920413931500       0.02954796842179      -0.80458670024240
C         3.34531630098562      -1.93158527998538      -0.08158691455180
C         3.71051492048412      -1.30674650674301      -1.45332972767187
C         2.47562812738575       1.66378764650913       0.43920828969028
C        -0.12901263577378       0.21236873816325       0.12872401139910
C        -1.43525855979646      -0.21481464944860      -0.55232401416780
C        -2.65573418606822      -0.00903711549213       0.34770701205938
C        -3.97039375165166      -0.44155621608340      -0.30233758388760
C        -5.17797106847405      -0.24068057429919       0.61187349817984
H         1.96141278452370      -1.02373998283381       1.40835014100746
H         3.62554828366018      -0.35400277928395       1.40989024138385
H         4.38923728317396       0.68182025092920      -0.87736483049165
H         3.14065790004096       0.72378115023019      -2.17611284242821
H         1.10029047978704      -1.00416441983333      -1.17912572021100
H         0.96781925178602       0.70137798476913      -1.67307003541478
H         2.59529793135446      -2.72795442982370      -0.19491243463652
H         4.23779289570110      -2.35427578634288       0.40084755602508
H         4.76511135717325      -1.48635000841792      -1.70205101063705
H         3.08721594092982      -1.72045772920518      -2.26070286495605
H         1.84335441773081       1.66311427418500       1.33359864409193
H         3.52180696940694       1.87051226155952       0.71106552779830
H         2.11477918729216       2.40625066118539      -0.28550944582742
H         0.00290237494498      -0.38334296619306       1.04776757607856
H        -0.21716622307805       1.26801506326518       0.43292308948068
H        -1.37005819593348      -1.27974628460734      -0.84227899700685
H        -1.57100203376520       0.35937331843335      -1.48788792812421
H        -2.72545785365940       1.05794390462409       0.63130969094708
H        -2.51486263886552      -0.57328703868064       1.28882765472771
H        -4.11710456715302       0.12674537154086      -1.23925660984537
H        -3.89937897751565      -1.50608964008925      -0.59144623888022
H        -5.29075513985858       0.81896911161100       0.89269260974347
H        -6.11090641619469      -0.55808171322499       0.12257427695151
H        -5.07189679534304      -0.82353464182074       1.54122247381059
S         6.14402068922631       0.58570875657492       1.26037734416622
O         5.30612677940912       0.49592151672803       2.47522452475635
O         5.84289973265298       1.76295559727836       0.41043716084743
O         6.29197231209550      -0.67866366476056       0.51340235529763
C         7.86614973342042       0.93031283950475       1.92353957381678
F         8.25001003408557      -0.04393912961457       2.78962668400627
F         7.91031916320200       2.11826226550931       2.58143499713754
F         8.77452918464181       0.97597823248530       0.91363731663718
