38
C12H22N2O2 optimized with ForceField in AMS.
N         0.36418581233809      -1.60082941819270       0.31518170852614
N        -1.75597776779160      -0.93476621069093       0.26089716013126
C         1.75812615500985      -1.73034415739574       0.73372433277350
C         2.65985187559302      -0.77202315491080      -0.05496311544225
C        -2.99622098335538      -0.24901692833633       0.61890404808201
C        -0.62119590637623      -0.97314984184376       0.98539305645954
C         2.29537861057027       0.69785079211954       0.19956299884219
C        -0.16744270946476      -1.98284025572479      -0.86376435166783
C        -1.48412174828651      -1.57235518462382      -0.89626955441830
C        -3.23216916963694       0.97236211186020      -0.27949932873530
C         3.26505658342879       1.63903396360337      -0.50805223957946
C        -2.11131531521161       2.00438848455003      -0.15449081920044
H         1.85228696452299      -1.51541486891830       1.82110138271040
H         2.09444992322984      -2.77672800493961       0.56919643492415
H         2.58122525184230      -0.99548391920345      -1.14144912536890
H         3.71093171363753      -0.94869446898024       0.25833827711686
H        -2.95881844903482       0.07851444060310       1.68147458935840
H        -3.84774905130251      -0.95520162589366       0.51532650758142
H        -0.49894362312544      -0.50640425369158       1.95538259600709
H         1.26967636706180       0.90221372376472      -0.17521440596745
H         2.31946627416454       0.90906453866377       1.29086341190541
H         0.36914835822961      -2.49342004827956      -1.65289317688631
H        -2.17944204188625      -1.70043373141553      -1.71562025517437
H        -3.31952414465872       0.65089370641072      -1.33980004501000
H        -4.19225118047910       1.44947958956222       0.01268416615258
H         3.24824103092433       1.45774473972211      -1.60384619803274
H         4.29707917975103       1.48863001647012      -0.12577874012944
H         2.96547698504199       2.69152452669177      -0.31812740547991
H        -1.16150264027353       1.59556093438334      -0.55883547906887
H        -1.96397275370090       2.29234602489832       0.90815636648319
H        -2.37474852942505       2.91257609560676      -0.73622021833937
C         7.05050681136106      -0.65105033275494      -0.86924046844101
C         7.37546634179242      -0.60129472114349      -2.32830172361719
O         7.14866469324320      -1.56901033641875      -3.03615966087641
O         7.86548413484850       0.40454668601721      -2.81584530022155
H         5.95822021768605      -0.79284584442927      -0.73842566752007
H         7.58904366564749      -1.49859238698257      -0.39521595896177
H         7.35239885688471       0.29296175914251      -0.36716470731520
