32
C10H18N2O2 optimized with DFTB in AMS.
H         1.10405374176371      -1.07973651928216      -4.91681719098415
H        -0.38757310447595      -1.70112238311326      -4.16105166601410
H         1.19261408504308      -2.40939378107844      -3.72443748883725
C         0.66966659711335      -1.49218515528234      -4.00554109601539
H         2.45617658934095       1.15147596257425      -0.67226498977651
H         2.93030180984048      -0.20557865788193      -3.03488068708342
H        -1.18260088799888      -0.33635940024878      -2.17290961112332
N         0.80370137107336      -0.52810105595020      -2.92821697097656
C        -0.12365430578376      -0.34059424156782      -1.96071968889373
N         0.43223448347684       0.51585673214307      -1.06680326319585
C         1.79642836094703       0.60340026434230      -1.32143033065348
C         2.02535877300301      -0.04990173530996      -2.47536414383627
C        -0.20494115889657       0.95065064536444       0.16499730276351
H         0.16709089906227       1.95314313744402       0.40252261594617
H        -1.28260416249480       1.01060659811040      -0.01518725284093
C         0.09336118637630      -0.01969054458538       1.31362033864264
H         1.17671635109916      -0.13074747873570       1.41872191938239
H        -0.32464291953093      -0.99862763008639       1.06729285619303
C        -0.50984429422035       0.48862171721912       2.62507732388763
H        -0.07569711298176       1.46257987902857       2.87765231573792
H        -1.58958145822045       0.62623615912098       2.50080579929801
C        -0.25192082144237      -0.49477908104315       3.76564525211335
H         0.81969054198430      -0.63409526729011       3.91429812543481
H        -0.69946631562025      -1.46369253943198       3.54114382283411
H        -0.68565024310727      -0.11669351495451       4.69169480792879
C         0.34601220898814      -3.99949270569658       0.07592194608538
C         0.60084330900432      -2.88105570421898      -0.95131466313704
O         1.63310749957278      -2.89609628378210      -1.60446246789936
O        -0.34148134418317      -2.01613165468405      -0.99284641327910
H         0.77207096196101      -3.68364169282158       1.02777456019186
H        -0.72135659089157      -4.16590352793301       0.20292800129262
H         0.83892305349801      -4.91321073746877      -0.24841862008573
