36
C8H20F6NP optimized with DFTB in AMS.
N         0.50227000305251      -0.25423564177820      -0.02768962041394
C        -0.54956443777979       0.04388764084923       1.00371995111547
C         0.04971267030502       0.15298903130198      -1.41036257943705
C         0.76687484179226      -1.73949692092996      -0.03444928591876
C         1.74765046257176       0.52254198064183       0.32200718536883
C        -1.92591679100730      -0.54182220776050       0.72042963412927
C        -0.38634660932860       1.60169568137270      -1.55105812767429
C         1.93633083796427      -2.19129340643246      -0.89590022907839
C         2.39916282350761       0.14322990756683       1.64151026947297
H        -0.18343356938947      -0.34828111774514       1.95499992616279
H        -0.62037482530570       1.13082192481650       1.08517102263576
H         0.89119001901597      -0.02788993593419      -2.07782124248930
H        -0.76686749213185      -0.51725713608234      -1.68837331247723
H         0.92838651810655      -2.03995899885937       1.00403793950959
H        -0.14900076487577      -2.21756923005184      -0.38952134021604
H         2.45518913620600       0.37828263745552      -0.49328792727699
H         1.46469612305182       1.57612860068293       0.34494554217682
H        -2.57433718064025      -0.26803845090946       1.55280822420188
H        -2.36011578012482      -0.14082586833598      -0.19294291364085
H        -1.89970397659222      -1.62786174618733       0.65404599969962
H        -0.67607458927551       1.74368267477966      -2.59219263023644
H        -1.23951931436089       1.84820263579207      -0.92047994405381
H         0.43194100733899       2.28640626930860      -1.34052011247897
H         1.97746409239099      -3.27915755506342      -0.83883633644398
H         1.81134638356097      -1.90670221018383      -1.93760103754784
H         2.88449210529058      -1.79390858435147      -0.54126470951395
H         3.29015797763795       0.76304276462554       1.74340846940678
H         1.75267663811312       0.33615542735591       2.49683446299332
H         2.71263156131076      -0.89875261737146       1.65965885662997
P         3.53816434111657       0.73006963747798      -3.20272419049783
F         3.89891727934649      -0.13363711488893      -1.80876749735649
F         4.55672998589724      -0.20662400382187      -4.05290347836477
F         2.29261040228984      -0.36219010165560      -3.48181645090192
F         3.10014968154305       1.56648852900193      -4.52756630665354
F         2.45107578450672       1.63703073387778      -2.28170687503476
F         4.71512658899507       1.79538700423634      -2.84653884039591
