24
C6H12F3NO2 optimized with ADF in AMS.
N         0.24593110088967      -0.09950410058351      -0.18391468275724
C        -1.03710082775448      -0.84458617888181      -0.00116947265137
C         0.68768661293401       0.48043058843876       1.12171501962891
C         0.04427331825729       1.00878606664437      -1.17628595607906
C         1.31061154148489      -1.04176583934767      -0.70166199069641
H        -0.88256542229880      -1.63744779788004       0.74066195383716
H        -1.81565600411559      -0.15000430972708       0.34005715932080
H        -1.31839306373225      -1.28706093859701      -0.96414966160611
H         1.63250665194257       1.01310786264725       0.95945369272873
H        -0.08160693422543       1.17181533611514       1.48943804298160
H         0.83952094048091      -0.33634681101701       1.83778401458301
H         1.00513548195005       1.50953689682401      -1.34041057547202
H        -0.27954961548729       0.57113722180258      -2.12687848787074
H        -0.70891581092426       1.70187947809330      -0.78027725358455
H         2.25559996646281      -0.50559329016744      -0.83313090901643
H         1.42709956409467      -1.86444837591455       0.01464734111194
H         1.01990501108690      -1.42143975641110      -1.68600509857233
C         3.60576833267171      -1.15299685608973      -3.47049876882590
O         3.25446718564659      -1.78834683447839      -2.44080235722225
O         4.44162702514527      -1.35942104141797      -4.35955898366815
C         2.78680864454208       0.19940698919515      -3.65328245822133
F         3.11870888676065       0.95512042031754      -4.72419029004360
F         2.91557253777694       1.04605085161270      -2.54052725999171
F         1.41121318071109      -0.02891532157751      -3.76355690541298
