51
C13H24F6N2O4S2 optimized with ADF in AMS.
N        -1.21585840717090      -0.17980893131365       0.00174606617200
C        -1.83829373124389      -1.43623785254644      -0.64573060412688
C        -2.11268984448664       0.13339345417287       1.18832779068345
C         0.18033850929858      -0.50995810460508       0.50186389178127
C        -2.97613103830356      -1.87387721198291       0.27771834288571
C        -2.65833787730144      -1.21483710432684       1.62285013417206
C        -1.18669932797906       0.96699169031164      -0.99157919787216
C         1.18768545621226      -0.74621040031389      -0.60865889517799
C        -0.62509763813404       2.25889607511453      -0.42487275565016
C         2.41248034055086      -1.49669955158100      -0.08200502310274
C        -0.65288458602165       3.35789934364827      -1.48985600902025
C         3.41855332698667      -1.76631279557938      -1.19710868725455
H        -2.16555796376407      -1.17082144022322      -1.65484587172598
H        -1.04609757250478      -2.18675438915484      -0.74188638634752
H        -1.53930468532123       0.68040904696738       1.94658322539101
H        -2.92441496892719       0.77274972472054       0.80948297779814
H         0.06669984921907      -1.41151044224622       1.12316983906157
H         0.48845834133343       0.31668783607715       1.15882294756039
H        -3.93858639952001      -1.49816502065861      -0.10547478736800
H        -3.04218777447581      -2.96885763851119       0.33546368741873
H        -1.89955076069413      -1.78554105504574       2.18286413382593
H        -3.53963755378868      -1.10237048786523       2.27039999710765
H        -0.61947723234594       0.61407222865799      -1.86309304090328
H        -2.22662245903211       1.09840947734764      -1.32697965656611
H         0.74272847769409      -1.33234693457349      -1.42971302891088
H         1.50383927569166       0.21640353718776      -1.04462041639487
H        -1.20707810720750       2.58244105605558       0.45600419453195
H         0.41476603049941       2.10845742168982      -0.09013576628244
H         2.88895236958715      -0.92255352027103       0.73463286310985
H         2.08180842442131      -2.45631104695165       0.35630452305221
H        -0.06546797004783       3.06547321989306      -2.37175918220774
H        -1.67903260979824       3.54862288592258      -1.83700662121240
H        -0.24387216811356       4.29386425915301      -1.08367409685750
H         4.28543117274458      -2.33114174974590      -0.82498846993675
H         2.94518429344569      -2.34597029759120      -2.00484475259439
H         3.78677396269971      -0.82262879534628      -1.63022292866678
N        -0.81796981197463      -0.82713243877795      -3.76337020310099
S        -0.77395757613950      -2.42856831452834      -3.99320798013909
S        -1.61556954038253       0.22046968597018      -4.69667689444270
C         0.17421391350149      -2.79367636743250      -5.60116936057160
C        -3.48027935396372      -0.04070223737466      -4.39465532440993
O         0.11486973354143      -2.94271147005727      -2.94644126786254
O        -2.08064301695878      -3.04814524672203      -4.18776292654565
O        -1.46728095353055       0.02535339930389      -6.13032458505965
O        -1.39257447378379       1.53264322652022      -4.09281580027972
F         0.60957690709037      -4.07736258458325      -5.54370618369432
F         1.24631037519630      -1.97875371956594      -5.72150772751083
F        -0.61305080626863      -2.65907492010818      -6.68199821121433
F        -4.14073395196893       1.08664643811420      -4.75155571616474
F        -3.73351663579412      -0.25672554745665      -3.06051715931667
F        -3.98531817436657      -1.07092467188775      -5.09034317775978
