32
C6H12F6N2O4S2 optimized with ADF in AMS.
N         0.23605388491693      -1.05380500663527       0.30013320204980
C        -0.00157039620787      -2.51325265342343       0.57940302047273
C         0.27531186240098      -0.30568451114533       1.59864472638164
C        -0.86909350630470      -0.52743900419820      -0.55854732561434
C         1.54928149217691      -0.87880514318184      -0.40814002435958
H         0.79427741688705      -2.90383449214719       1.22328190920818
H        -0.97548639389995      -2.61476568624859       1.07475510615630
H         0.01039384835772      -3.05482315012414      -0.37228806367965
H         0.44427437292171       0.75818440454799       1.38864593596782
H        -0.68239785981465      -0.44712622849096       2.11478074497222
H         1.09328715757572      -0.71267940778913       2.20426322379969
H        -0.68515592261910       0.53267645200674      -0.77424157840459
H        -0.88726917820225      -1.10537132226473      -1.49049716178724
H        -1.82010205561827      -0.64993185715096      -0.02529936055144
H         1.70205909399452       0.19153078935686      -0.59541440488527
H         2.34252508901457      -1.30565826103995       0.21522383715574
H         1.51374179458566      -1.44007662791851      -1.34912979138517
N         3.45363853797825      -5.41808905456076       1.81054588912659
S         1.92627824489996      -5.68568940389275       2.24289089325021
S         3.92391922046518      -4.09270561438312       1.05680404590420
C         1.07991387930924      -6.40069048770469       0.66337884614382
C         4.18313033140509      -2.79943003320879       2.43469087366147
O         1.91158946867495      -6.80606027362216       3.16523127471920
O         1.14006209469595      -4.48399255171917       2.55165763187068
O         2.91206882104004      -3.45787611582852       0.19433658806691
O         5.26849502760404      -4.28955575973265       0.54564022253792
F         0.37726609187803      -7.50733194206113       0.98605410927791
F         1.97258965642199      -6.71940255672700      -0.29589005254996
F         0.19863871537416      -5.49581981731425       0.13584188164765
F         3.01569690574390      -2.14131839039877       2.73681593302419
F         5.06539194580174      -1.85977575277943       2.00631588508576
F         4.65272718474251      -3.35266526062015       3.56659390163661
