64
C18H26F18NP optimized with ForceField in AMS.
N        -0.69048529418025       0.29582914746647      -0.15673092575947
C        -1.25491212624284      -0.44176997296340      -1.33282540593359
C        -1.81912289551063       0.69447532552655       0.74707642057615
C         0.29611647352544      -0.54336625626867       0.61116690699574
C        -0.05108080786072       1.54222291304651      -0.70446850050486
C        -2.11703412886788      -1.65825440256466      -0.95841014843585
C        -2.72980497162447      -0.47673069072998       1.17035859602695
C        -3.26086951929787      -1.23634337567096      -0.04204829961408
C         1.56207546509400      -0.97351700409804      -0.16937419971635
C         0.68853761739414       2.42972428341680       0.32615931933202
C         2.51130158440638      -1.77372387289116       0.73113464252733
C         1.25618731423756       3.67847718988878      -0.34476237012708
C         3.75237536707589      -2.22191330215986      -0.03637031052168
H        -0.45403151204521      -0.76798284008082      -2.02486547525244
H        -1.90177963399680       0.23731180735789      -1.93684629325165
H        -2.46562198488393       1.45528319381664       0.25155965493634
H        -1.43645200135589       1.15998475396009       1.68069671067522
H        -0.17885745584765      -1.47164610615549       0.98341515731819
H         0.61396811597081      -0.01151137730209       1.53443721189470
H        -0.82376412873916       2.17807100570641      -1.19653864553971
H         0.66274485477029       1.28774574179586      -1.51955705992884
H        -1.50737056485168      -2.45363028397322      -0.48257443009471
H        -2.54531602130532      -2.09494593337009      -1.88673205231973
H        -3.59223035462355      -0.07175336846862       1.74287476881349
H        -2.19482610955471      -1.17040169047859       1.85171409432159
H        -3.96783661737862      -0.58755191490127      -0.60498185476521
H        -3.81669929775404      -2.13680866848186       0.29725950630233
H         2.11368257390912      -0.09024179242824      -0.54955200961798
H         1.28195049649244      -1.62124953700746      -1.02310452263770
H         0.00043888138495       2.76081464009576       1.12968044688405
H         1.53811593769869       1.88364480849586       0.78394450300792
H         1.98846677921303      -2.67358438177329       1.12270130236561
H         2.82841594466200      -1.14721083311190       1.59321483380025
H         1.78326378000226       4.30014359043690       0.40947536203160
H         1.98010898041005       3.39505618287956      -1.13844158744588
H         0.43888359651491       4.28291977933519      -0.79287535816141
H         4.31155085539065      -1.33968153960640      -0.41462368494821
H         3.46441054300231      -2.86822184657835      -0.89299062446544
H         4.41745541175099      -2.80147635170038       0.63785292282712
P        -0.42699488832392      -2.90486087193141      -5.48821515938989
F        -1.14232503864008      -4.42079389171875      -5.08353345489572
F        -0.89447427598008      -1.75384286745611      -4.29881719133585
F         0.18458641810250      -4.10966117720766      -6.55334086600405
C         0.66743615214611      -3.34219841913742      -3.95714134053617
C        -2.28382058474185      -2.71508471767754      -6.00236105162167
C         0.46622492339662      -1.75811405894723      -6.74426693406284
C         1.64456436689985      -4.52324652068566      -4.14172286006613
C        -2.76041377392211      -1.31442424197293      -6.46704224931287
C         1.99834927178854      -1.86872075929730      -6.85602147687003
F        -0.15833912864058      -3.67195928827990      -2.88858547908152
F         1.40619435927308      -2.23788872635761      -3.56559749162550
F        -3.09887790727256      -3.06029229138241      -4.92829108733252
F        -2.54717007793600      -3.60015477338359      -7.03669270913205
F         0.17390898254308      -0.44672205754134      -6.41407026716656
F        -0.03469940844167      -2.00638243058861      -8.01125741200741
F         2.29030867303983      -4.76104844802690      -2.94119259762921
F         2.60434910368742      -4.24078177406003      -5.08821794370367
F         0.97987681030610      -5.68016298989912      -4.50452081779255
F        -4.13952769002737      -1.33451389530086      -6.58219590195721
F        -2.43123838805203      -0.32205503986087      -5.56318974346135
F        -2.25435679627137      -0.98606885645512      -7.70748747529456
F         2.61664253888737      -1.65009980775525      -5.64424603873487
F         2.44796868966564      -0.89710284909289      -7.73283803800957
F         2.37569022332885      -3.09657851564396      -7.36727266067092
