25
C9H10F3NO2 optimized with ADF in AMS.
N        -0.83924053452310      -0.61195269734959      -0.23843737358768
C         0.27060968587450      -1.52895395213858      -0.57192587809414
C        -0.88791333631909       0.62922377760976      -0.78635325087754
C        -1.83033450971360      -1.06019184723271       0.57825217740341
C         1.42421457779327      -1.34447779192273       0.40084075529094
C        -1.86207719549886       1.52209913696973      -0.42098360376011
C        -2.76927480020408      -0.13452494890760       1.07123064439859
C        -2.80133989311323       1.13983625619421       0.55871171960311
H        -0.15387675658418      -2.54848703648986      -0.53695198650823
H         0.57109769888340      -1.31408194881037      -1.60833586012949
H        -0.10449779789097       0.86026360632341      -1.50581316919147
H        -1.66918018156553      -2.04230867295213       1.01734637369286
H         1.81029103129042      -0.31317380923720       0.37212285633357
H         2.24337374083377      -2.03061373334830       0.14068535794443
H         1.10482082218754      -1.56585818123709       1.43041804901099
H        -1.88126264492414       2.51242680830584      -0.87391463224062
H        -3.49466652121721      -0.47664671001361       1.80869773397189
H        -3.55145953490366       1.85401927549539       0.90170484963222
C        -2.75783778653136      -3.30829283511034      -0.91077157986833
O        -3.11713106096710      -2.08900089041011      -0.83876941938780
O        -1.77182440551710      -3.88289402992078      -0.41563513437697
C        -3.73397900782609      -4.16441270858071      -1.78056808692192
F        -3.69504633183451      -3.75000112806477      -3.08635712891394
F        -5.02391902685983      -4.03915077044376      -1.34862850042873
F        -3.42735152616923      -5.48585797642809      -1.76639811789504
