30
C8H15BF4N2 optimized with ADF in AMS.
N         0.35449112912899      -0.84856018445566       0.21942649827993
N         2.39092455972440      -0.23881866579974       0.66641837450105
C        -1.09662739888425      -0.80558968166808      -0.01757686035769
C        -1.45655117470584      -0.31552277930226      -1.41991218371794
C         1.11554366082383       0.16393276837336       0.65862062456574
C         1.17449840645804      -1.91214379436235      -0.09301977369668
C         3.57870037727145       0.57683917943627       0.98522305093586
C         2.45081627941554      -1.52914094970631       0.18822471691231
C        -1.29882769516987       1.19080179836752      -1.59756723015320
C         3.22674755785610       1.97125901630229       1.45827542924968
H        -1.53571465425047      -0.15731503414181       0.75800648052591
H        -1.46240705890611      -1.82871266428918       0.15951724354698
H        -0.82018259641788      -0.83860732974907      -2.15247697564364
H        -2.50195379258284      -0.62125578144317      -1.60317796951386
H         0.75577135367214       1.14578772502459       0.92756716126233
H         0.78546053499017      -2.82534794981497      -0.52450652107140
H         4.14258109236309       0.01880107288292       1.74981217809018
H         4.15131477525583       0.61879566987185       0.04516937750612
H         3.39556425465238      -2.03702023966408       0.04542097510146
H        -0.25060106333681       1.50095312435250      -1.47624974732517
H        -1.93871655895620       1.74356759031143      -0.88811313599329
H        -1.59276939007709       1.48496411304562      -2.61671482947114
H         2.71036108799340       2.51960284604726       0.65697412805922
H         4.16068729292424       2.50601240185818       1.68432530665219
H         2.61852249612871       1.95857090794162       2.37616422343022
B         2.44081160703837       0.83757950640393      -2.47118443169667
F         1.99910980554010       1.79088949889516      -1.47435165048202
F         2.57960639271454       1.47186340217994      -3.70684795303735
F         1.47144445252562      -0.20975475251806      -2.53327059037514
F         3.68504566141042       0.28087024972030      -2.03029151118398
