54
C14H26F6N2O4S2 optimized with DFTB in AMS.
N         0.77127065251966      -0.36208135744302      -0.74094771270592
C         1.51447380479887       0.11593988093733      -1.95864481168702
C         1.71247345805327      -1.33885157090215      -0.09862888675175
C         0.52768460457390       0.77993398871843       0.20050408652984
C        -0.49332797823770      -1.04998077055998      -1.16426540873859
C         3.00451889937708       0.01073782637989      -1.63910354543802
C         3.10364914976911      -0.76280186929482      -0.31908500322322
C        -0.52232715309874       1.78286535329480      -0.27560434026589
C        -1.32039432892170      -1.59835186849113      -0.00693286848012
C        -0.53622049550877       2.99465077925093       0.66451057989622
C        -2.57043010005473      -2.28957507864460      -0.56728312050549
C        -1.59467888429245       4.00828765496586       0.23532591948701
C        -3.41646201579803      -2.88952165797103       0.55275629235577
H         1.19942780507564       1.12841934744898      -2.20617908130575
H         1.24941573106346      -0.54640550611159      -2.78058687503359
H         1.60452243278244      -2.28928191110347      -0.62313996096280
H         1.45414279390484      -1.46546048126829       0.95269498521594
H         0.22506478695222       0.35785017501409       1.16197552166277
H         1.48828211619950       1.28371711329556       0.33545055220744
H        -1.06981887416673      -0.34048337382943      -1.76046725459560
H        -0.18994844164980      -1.86926553096039      -1.81826463868989
H         3.50272309325933      -0.53323839155035      -2.44361415507426
H         3.46291573500763       0.99745520530874      -1.55068256587080
H         3.38765069074110      -0.10139026017201       0.50336797277521
H         3.83622224069731      -1.56857371867754      -0.38077915020691
H        -0.30405842860787       2.11869594129475      -1.29236995693290
H        -1.51300799094590       1.32189431771451      -0.27872740028625
H        -0.73131292247421      -2.32141546426180       0.56473377565227
H        -1.62603487131106      -0.79801187858847       0.67343093185396
H         0.45007753382990       3.47029936409380       0.65968844084705
H        -0.74243347444796       2.65918969928449       1.68632136665227
H        -3.16504642960568      -1.56120263909810      -1.12775328023089
H        -2.26656131017717      -3.07897196943741      -1.25996908390578
H        -2.58668557437249       3.55585591979679       0.25354990082849
H        -1.39349126917399       4.36600061449210      -0.77488698164856
H        -1.58782980549143       4.86032415282591       0.91452569042093
H        -3.74196087797597      -2.11359839333393       1.24734256584830
H        -2.84461376816940      -3.63506266061474       1.10662015211866
H        -4.29823521211211      -3.37112132612325       0.13102177749318
N         1.13126827190953      -3.30241160086973      -5.15336509495606
S         0.34880484953138      -1.91022387446672      -5.25725872196739
S         1.70007098717804      -3.75016302126666      -3.73141944036574
C         1.67872699513621      -0.60687139327026      -5.52551378893684
C         0.35217339415175      -4.76823095299021      -2.92521464045144
O        -0.40402243450155      -1.91310880607356      -6.47766572518213
O        -0.31636280098873      -1.45246323983568      -4.04694662499450
O         1.91744783381504      -2.68537949070591      -2.75527040739689
O         2.76719599836953      -4.68641939570063      -3.94076637639558
F         1.96242767507439      -0.46614284552453      -6.80498087067355
F         2.79180863341114      -0.91736163737843      -4.87060324398670
F         1.24478529917659       0.56137215430567      -5.05028987343964
F         0.77244175399321      -5.16066481252515      -1.72691190829133
F         0.04736643619372      -5.83051397196540      -3.64484261888253
F        -0.74781718436165      -4.03939630501227      -2.74996307448499
