34
C10H22ClN optimized with ADF in AMS.
N        -0.55925004804247       0.30523176641622       0.14439642835803
C        -1.56501332930948       1.21973114399498      -0.52105196896078
C        -0.89313011775742      -1.14877866666704      -0.17210759193104
C         0.80251138907336       0.64586673749224      -0.43766137849338
C        -3.00705846239518       0.88741886668510      -0.17356762374008
C        -2.32443050179512      -1.49246005359655       0.18960895920540
C        -3.33262193803316      -0.57099123315388      -0.49112019670351
C        -0.53612604419830       0.52804456073187       1.63210677202809
C         1.97449470188475      -0.13910497082677       0.11460602049190
C         3.27278961839358       0.31508246857623      -0.55245653901842
C         4.47250033020206      -0.46086008161105      -0.01304824372913
H        -1.40222214137748       1.10909118115640      -1.60586627887425
H        -1.29937139885684       2.24828142464920      -0.22913207837524
H        -0.19080564472934      -1.76647317120951       0.43888084352936
H        -0.71463861771823      -1.26132317484587      -1.25485262084597
H         0.93594618109661       1.72716355316526      -0.25962480107825
H         0.70614795545617       0.48868367150097      -1.52523398608088
H        -3.64867014336906       1.57454440174271      -0.75035933124706
H        -3.20323198377073       1.09939722126606       0.89062682893194
H        -2.43562110581419      -1.47386454807841       1.28710644502379
H        -2.48131120952348      -2.54270718880466      -0.10488789899289
H        -4.36074383768868      -0.80767121205822      -0.17362221462364
H        -3.28806462180380      -0.72344893933365      -1.58568589075189
H        -1.56080369493570       0.48484045292989       2.01275056871686
H         0.05480989605502      -0.30190993438592       2.09217547240948
H        -0.11012528605281       1.52405756016461       1.81578708199046
H         1.83071307522948      -1.22123777666218      -0.03095986098029
H         2.05158829798358      -0.01931766970398       1.20659948847207
H         3.42202831980197       1.39800052226055      -0.38207300569127
H         3.20022694043595       0.17477977963683      -1.64743759369267
H         4.34793112721161      -1.54032597890627      -0.18964997490549
H         4.57036203982001      -0.31833147486733       1.07414151925428
H         5.40766618795507      -0.13553585208676      -0.49201419950612
Cl        0.79742733267226      -2.38193744617105       2.32644257571060
