57
C15H28F6N2O4S2 optimized with ForceField in AMS.
N        -1.54292114494836       0.09232099253378      -0.07550120325568
C        -2.56199953790560       0.47396143028967      -1.10663542531242
C        -1.77382103322417      -1.33393990949423       0.32474711644639
C        -0.20044772349382       0.19242324722904      -0.74530304042543
C        -1.62204179481641       0.97555311956975       1.13994570193299
C        -4.01890055171514       0.24506004978607      -0.66771381677888
C        -3.21446186108643      -1.63096704950721       0.78871287175763
C        -4.23584943599950      -1.20704094887998      -0.26119057652366
C         1.02697776071530      -0.11934851045270       0.14773414843679
C        -1.28524580355216       2.46094601639071       0.91202247318741
C         2.32790959741777       0.04284559981398      -0.65067626077266
C         3.55532405263496      -0.29364603572224       0.20516812860390
C         4.84875253655365      -0.09916640902242      -0.59508236746021
C         6.07551071896764      -0.45450773866700       0.23921178484884
H        -2.40931363121922      -0.12590340497898      -2.03448770959694
H        -2.44379314920436       1.53135721772274      -1.42156972786250
H        -1.10051957357693      -1.62634001730570       1.15898687368910
H        -1.54859013160147      -2.01775232391717      -0.52608971526526
H        -0.06482535819287       1.20409873783167      -1.18846456143817
H        -0.15952613589095      -0.50639223915278      -1.61308777867346
H        -2.63245099220962       0.94928686850899       1.59091467748593
H        -0.95518922547594       0.59328832963799       1.94263029611442
H        -4.69270855638847       0.47665977149820      -1.52080078047211
H        -4.30295442863923       0.92665635883179       0.16013873659558
H        -3.43020807210020      -1.13039806897443       1.75561740317390
H        -3.31893128261834      -2.72366102996752       0.96283617764307
H        -5.26205245506846      -1.32689007888619       0.14873248802064
H        -4.14322823856161      -1.86101769673379      -1.15617544311630
H         1.06963472564822       0.57090450613378       1.01420263269037
H         0.97694482080272      -1.16261884723044       0.52132086897030
H        -0.24355724661687       2.60357281717782       0.56272827303981
H        -1.99281688074355       2.94124124300239       0.20789769556320
H        -1.37677119992479       2.99766109981128       1.87966248741200
H         2.40870628445747       1.09249979368629      -1.01004976182340
H         2.30530554558620      -0.63143360660236      -1.53514320296826
H         3.48746699993802      -1.35044819237775       0.54583375023622
H         3.57451879396390       0.36599151039287       1.10067159401709
H         4.83167826506179      -0.74496304691079      -1.50000645108076
H         4.93147906662204       0.96063360374642      -0.92108894366629
H         6.03470075810643      -1.51994175441330       0.55075665150625
H         6.99320393199107      -0.29653098129925      -0.36582762956182
H         6.12929333669894       0.19097701578826       1.14158014956903
N        -3.85453125576454       5.50004062042533       0.58442053277568
S        -2.57714025235399       6.51836606330997       0.71118410087953
S        -4.96057108406626       5.61388543624421      -0.61976998166365
C        -3.03583940024723       7.90732225649122       1.72698211593921
C        -4.56786838604821       4.42234042240325      -1.88126306734878
O        -1.43277725231988       5.79776612340948       1.36574388297982
O        -2.15402978024339       7.00776780550368      -0.64635297357426
O        -4.96312479863780       6.99406144474788      -1.21685157991770
O        -6.32307876161835       5.30073705367665      -0.06863597058183
F        -1.95739205033683       8.76063528714160       1.85748422130350
F        -3.41766237498088       7.45809026184633       2.97660245547464
F        -4.08859318622908       8.58690768916534       1.14495768749787
F        -5.46485646564641       4.53801577044002      -2.92526445266453
F        -4.65054728443058       3.15313575358009      -1.34889347611048
F        -3.28615447496821       4.63933096072767      -2.34986149797569
