41
C11H22F3NO3S optimized with ForceField in AMS.
N        -0.51068280635566       0.00871487680138      -0.00277914935860
C        -1.43294818771591      -0.55421440733216      -1.03694863711682
C        -1.40999221488470       0.60566247501654       1.03207338183031
C        -2.83602533239456      -0.06042266097165      -0.74006239346712
C        -2.82743942218291       0.14754306979678       0.74762381888218
C         0.34240420208867       1.07269207747549      -0.62570624892372
C         0.30088200728739      -1.08747393012261       0.61952981236563
C         1.35360723270121       1.73581642212026       0.33975505307162
C         1.28933022619191      -1.78452985161361      -0.34545138187407
C         2.06977915109182       2.90064074251346      -0.33943487564591
C         1.93536944568856      -2.99578846017809       0.32193102133245
H        -1.14791084932305      -0.27998497707739      -2.07856377886652
H        -1.47122630583887      -1.66743403040904      -1.00711265201998
H        -1.12566762981889       0.33285584603826       2.07425734271804
H        -1.41799770756057       1.71917801850677       0.99174928191542
H        -3.01293139683254       0.90922749475572      -1.25649719510881
H        -3.61135816761752      -0.79588082082622      -1.04739879581604
H        -3.02432196751669      -0.81744973896163       1.26559158241752
H        -3.58136479354372       0.90232369602477       1.06120870035209
H         0.90544512255025       0.66277022454255      -1.49312266775878
H        -0.31190687319483       1.87012994313289      -1.04976027312202
H         0.87739239872097      -0.70129330154354       1.48903138000445
H        -0.38341487706577      -1.86059669520907       1.04110932093320
H         0.84343142703448       2.11959708213056       1.24741353106916
H         2.12495720130253       1.00453000019300       0.65772717830078
H         2.09988956347262      -1.08624044268876      -0.63983815570105
H         0.77417624110055      -2.12631064372657      -1.26693883488240
H         2.63177652119148       2.54149570886846      -1.22797938546928
H         1.33834089116491       3.67417571414905      -0.65691509347581
H         2.78732254342840       3.36309609510783       0.37072394213090
H         2.46401322317252      -2.68755235286842       1.24740600755190
H         1.16485994794105      -3.75285650094534       0.58034562219223
H         2.67007529543023      -3.45800521212220      -0.37054274611402
S         6.54742350859192      -2.01625112058890       3.69567061763151
O         7.33111236163762      -0.70069494053181       3.57995331492733
O         5.85549162634360      -1.89161770111335       5.06098028295143
O         7.64653076873703      -3.05720817122289       3.95392821411832
C         5.44605436340869      -2.38217018807711       2.30421811434726
F         6.19005959327397      -2.49852361038540       1.14605491287882
F         4.53148927696160      -1.35629615675716       2.16391337766147
F         4.77976483773220      -3.56823620260084       2.54571664763694
