26
C8H15ClN2 optimized with ADF in AMS.
H         0.15205067085856      -1.89624933524450      -4.23829316010048
H        -1.26643529123485      -0.80452382785402      -4.21158910132740
H        -1.18071821761075      -2.16693415375357      -3.02815088098583
C        -0.59738314535375      -1.42048786326103      -3.59652364742812
H         2.45153736691307       0.21212528730900      -0.49856638426644
H         2.13115442412811      -1.22987145975145      -2.85237081679003
H        -1.61747063771636       0.38264308612157      -1.69132267828646
N         0.08241255477602      -0.58712830382637      -2.61834039459112
C        -0.58648471978098       0.06533862524524      -1.63859574111072
N         0.32888858029879       0.53938565273784      -0.76557001559312
C         1.57182052446335       0.02195640426377      -1.09970540194356
C         1.41555279192474      -0.68188785866556      -2.25303774726787
C        -0.00401504248758       1.19475769580764       0.49898069344023
H         0.72454312914592       2.00621372844164       0.66121292791847
H        -0.99484863223123       1.65566434601206       0.36561678420878
C        -0.02765438602401       0.19576978942109       1.65171887722148
H         0.98533935758826      -0.22463788729808       1.78817866058099
H        -0.68987944168836      -0.63814036995723       1.35187012453031
C        -0.50564522384490       0.83050953601031       2.95421401073191
H         0.15537857731091       1.67199790826032       3.23550072260716
H        -1.51302737173787       1.25861637940786       2.80023154530488
C        -0.55806010153491      -0.18732757382313       4.09235894999644
H        -0.90773159151977       0.27512896494671       5.02768621761145
H         0.43758728719693      -0.62049027585013       4.27875454220758
H        -1.24048999513007      -1.01367967725016       3.83975061851708
Cl       -1.86802855830927      -1.88233199554983      -0.53944321288560
