40
C12H25NO2 optimized with ForceField in AMS.
N        -1.43627930498705       0.38112074360882      -0.05283691190954
C        -1.72593506572310      -0.91249562128212      -0.73905720151446
C        -2.51035868988533       0.53643474160766       0.96321977319597
C        -0.10898474496503       0.35886253901500       0.63352645620762
C        -3.04204354290691      -1.46134534939654      -0.19853588073705
C        -3.68883885817757      -0.29665208342613       0.50545516097505
C        -1.51676569372255       1.51237482333061      -1.01412154937634
C         1.10553104636875       0.31695912109911      -0.32346757892653
C         2.38233851548333      -0.06470356751448       0.43571272784613
C         3.61008785879914      -0.02016001299087      -0.47992541952431
C         4.87398687288641      -0.41341384043175       0.27918315363276
H        -0.93285834716678      -1.67584362927149      -0.57075418128634
H        -1.81461517699035      -0.79295522126084      -1.84373690099656
H        -2.81474528378889       1.59756538267254       1.11818103237526
H        -2.19569676243348       0.14455098694935       1.95931510022672
H        -0.05837503179751      -0.52437275220158       1.31221504511330
H        -0.00226937277265       1.25977214104081       1.28099640629497
H        -2.83702243176454      -2.27021412419768       0.53831908021081
H        -3.69126912513002      -1.85822238518743      -1.00903382843402
H        -4.30815690796087       0.28386582024756      -0.21308630641826
H        -4.31811095599358      -0.62878525932438       1.35987282060949
H        -0.83617491000061       1.36017059289817      -1.87972337173771
H        -2.54575389314541       1.61565454400612      -1.42570027339146
H        -1.24467539727525       2.47282263720904      -0.52173861001365
H         0.93966772294162      -0.41677093086147      -1.14022416523508
H         1.24733842261720       1.32111596782011      -0.77915496789260
H         2.26948250073462      -1.09344350419754       0.84112827310852
H         2.53086215539676       0.63722426707832       1.28595762049695
H         3.73869138774058       1.00721621809283      -0.88505380229057
H         3.46891674535838      -0.72080897234081      -1.33167347779374
H         5.04574680275262       0.28064826899786       1.12959311522571
H         5.74874060045545      -0.36401978863716      -0.40275356390294
H         4.78421837563251      -1.45051227745372       0.66548563718441
C         3.13479290905781      -3.71839370697253       2.38809258888520
C         2.45034466367675      -2.90105088975310       3.43764125431834
O         2.92267932196435      -2.83302721946272       4.56066452023925
O         1.41922183834607      -2.30200816317294       3.17748093723572
H         4.15778308616309      -3.32367481042360       2.21685614335970
H         3.20492925447694      -4.77415638863814       2.72435115350037
H         2.57057692593511      -3.68273632967487       1.43161658073893
