48
C12H22F6N2O4S2 optimized with ForceField in AMS.
N        -0.51313684737897       0.01166443023904      -0.00300785233710
C        -1.43445054922596      -0.55345152102469      -1.03676813449363
C        -1.41362287735279       0.60692875955446       1.03178412005308
C        -2.83848840988085      -0.06262951422107      -0.74009728386868
C        -2.83048229013070       0.14770303156279       0.74693886862840
C         0.33719405414036       1.07727922134940      -0.62661613169031
C         0.30059282919582      -1.08223114814247       0.62003271925686
C         1.34938845235871       1.74107609748842       0.33715488148561
C         1.29052089375721      -1.77805379268398      -0.34386944593823
C         2.06721910328325       2.90321805764425      -0.34499779156768
C         1.96179627556918      -2.96813076825396       0.33568009258968
H        -1.15040986770095      -0.27739161191147      -2.07827098657853
H        -1.46987246791876      -1.66677119572432      -1.00659845377351
H        -1.12987816088477       0.33214929759622       2.07372684680783
H        -1.42191269506060       1.72050383432614       0.99236753757898
H        -3.01808788750462       0.90577252849114      -1.25780599450232
H        -3.61209695320694      -0.80041930823669      -1.04569738360964
H        -3.02751021828705      -0.81651030506109       1.26620866501635
H        -3.58484410120097       0.90265081964415       1.05855339683706
H         0.89872233025279       0.66858961001947      -1.49575516633777
H        -0.31927817934419       1.87408970940708      -1.04826582400366
H         0.87513576173455      -0.69386444804175       1.48994687198545
H        -0.38255990681157      -1.85692328513289       1.04066531465941
H         0.83968181223536       2.12742982079809       1.24408024717738
H         2.11994728434714       1.00961514429718       0.65630530150080
H         2.08875804410385      -1.07426328025884      -0.65755741279712
H         0.77083589771433      -2.14193499621623      -1.25437317387362
H         2.62896939927330       2.54052877797739      -1.23217975667185
H         1.33669083120225       3.67664404202465      -0.66454735115472
H         2.78498540693913       3.36648330856161       0.36414343469585
H         2.53657912596602      -2.63058429308830       1.22439837781012
H         1.20262562508642      -3.71527340127670       0.65089427902470
H         2.66015451564336      -3.45334858336566      -0.37558003601112
N         4.88909497148383      -4.12988233575292      -4.31932009779867
S         5.79156308762980      -5.25888280992088      -3.54620313015283
S         4.95882629858937      -2.53320723665199      -3.95418329306444
C         4.85837231259736      -5.91868409941614      -2.18069884970259
C         6.04883882818188      -1.72084532515192      -5.10528201888461
O         6.10739289956219      -6.37486642842119      -4.50097058019445
O         7.07128940833580      -4.65802858561914      -3.03433755962334
O         5.46297744524379      -2.32569193668214      -2.55288784906228
O         3.58564027068479      -1.93824344955746      -4.08613905721276
F         5.58777266703603      -6.91441295935530      -1.55954130910138
F         3.66790594013478      -6.44426346686933      -2.64639953521034
F         4.59147871514372      -4.91435394919266      -1.27139870741389
F         6.12279116908825      -0.37492860126393      -4.80056154561668
F         5.56092278039911      -1.87382679667804      -6.38939361848822
F         7.31096301297594      -2.27859939310836      -5.02627312067159
