49
C13H25F2N3O4S2 optimized with ForceField in AMS.
N         1.35235426538610       2.26377850563694       0.03902230030697
N        -0.85135328175283       2.43542150335530      -0.20904459080511
C         2.72873174515319       1.84374913277634      -0.21443946783285
C        -2.18924516503003       2.24855871395252      -0.76946214042914
C         2.99743763834691       0.45460864297986       0.38198862948422
C        -2.44015719588628       0.77203905642782      -1.11293637492074
C         2.09102975436336      -0.62103919811204      -0.23718625250402
C        -2.38898840744716      -0.12370426040551       0.13401235138177
C         0.31982746039327       2.17235226613611      -0.82104846886853
C         0.81915881013308       2.60588882012004       1.22912738409897
C        -0.54693472210051       2.71964879205267       1.07368661789610
C         2.46155910619291      -2.01863572461275       0.26860524767549
C        -2.58207413083286      -1.59752846351709      -0.23712427563737
C         1.52076410013516      -3.07632059156404      -0.30251461944573
C        -2.51949440942917      -2.48990171405503       0.99953817391699
H         3.42748989574921       2.58273601116461       0.23371200679545
H         2.92192140949137       1.81860395198176      -1.30874491312930
H        -2.28715609003861       2.86270647316329      -1.69038609002382
H        -2.96013585370083       2.59661277473615      -0.04737586176722
H         2.83888758302152       0.48742982320044       1.48187894570297
H         4.06201204169795       0.19355775543740       0.19620753187249
H        -3.44182145188404       0.68258558876598      -1.58682237088819
H        -1.68395910422476       0.43082483976500      -1.85301709776389
H         2.18460965138456      -0.59391962825372      -1.34509144385895
H         1.03376723518813      -0.41210792074361       0.03318121739330
H        -3.18582086077209       0.18942568376020       0.84354317413628
H        -1.40522980974336      -0.01011483024769       0.63771220905070
H         0.41033848239379       1.83882800046223      -1.84729802830831
H         1.37300097558795       2.70164590689699       2.15376332043038
H        -1.26816861912446       2.92099318480283       1.85483554481821
H         2.40000981405539      -2.04487236762761       1.37813614691140
H         3.50323432061956      -2.26152064091875      -0.03348959062217
H        -3.56793749337864      -1.73442323600836      -0.73171258206296
H        -1.78516385707016      -1.91121000492960      -0.94594158851995
H         1.56230218013295      -3.07322588402012      -1.41235354140071
H         0.47799147813520      -2.88118868217676       0.02408373860898
H         1.82353303614437      -4.08022501437541       0.06212928565575
H        -3.33894958643807      -2.23171809540512       1.70320195708943
H        -1.54345929827169      -2.36983509131454       1.51607197942181
H        -2.63160569224170      -3.55227496459750       0.69717647467121
N         4.12254935404749       4.10425206425845      -5.47026311472957
S         5.21543270510745       3.81130624209304      -4.28923706918144
S         3.09987847528597       5.37775475967250      -5.38340526404373
F         4.41410897444631       3.30391752646901      -2.91112983477856
F         3.96415391331327       6.79401066577795      -5.60546361419166
O         6.16714735719028       2.73985652108682      -4.73992301168528
O         5.97864895260648       5.06675603766674      -3.97209313096007
O         2.44042330857781       5.41654357471571      -4.03314355760076
O         2.05385854998622       5.25552779767055      -6.45478459555886
