46
C12H19F6N3O4S2 optimized with DFTB in AMS.
N         1.25748277140184      -2.31043904018093      -0.08622835511046
N         2.25982579422155      -1.53681358968703       1.65564917288486
C        -1.18266164625360      -2.29001561211745      -0.60932349473190
C        -1.54021056053888      -0.84161923596383      -0.96053545805690
C         0.22146958602282      -2.69451029564729      -1.05213187007301
C        -2.86107625540846      -0.43973293819182      -0.29599697978005
C        -3.24593483547680       1.00156885416207      -0.64213816470343
C         1.14447731715784      -1.46106346915093       0.92941765003684
C         2.45930249721462      -2.96267453911344       0.01062738667555
C        -4.55958045464975       1.39864714225327       0.02908595516054
C         3.09002609503197      -2.47861841530638       1.11053072987409
C         2.41686153749666      -0.91486904221460       2.96052122464787
H        -1.28534944685620      -2.45750423341689       0.46493995043783
H        -1.88748890920122      -2.95896292044333      -1.11124031918614
H        -1.62427089282181      -0.74152865203013      -2.04835335073847
H        -0.74655130578026      -0.16194079867947      -0.63084478659140
H         0.47823297570918      -2.25385888074173      -2.02158760659774
H         0.28177124809833      -3.78353297430747      -1.13058857961192
H        -3.65314633719504      -1.12082007007433      -0.62333728078821
H        -2.76229955965122      -0.54148765947249       0.78924626168734
H        -2.44971227487970       1.67959432744699      -0.31494651697729
H        -3.34508163032061       1.10265766833238      -1.72847143551490
H         0.31249247111598      -0.81776837434193       1.14780715139793
H         2.75191445595908      -3.72297372974037      -0.69141769183274
H         4.03903943173672      -2.72915035221657       1.55047004845307
H        -4.47559787713013       1.31095657101690       1.11296574640670
H        -4.80968732727465       2.43052417827548      -0.21837326201388
H        -5.37103688967791       0.75304891019610      -0.30898865115855
H         3.46203568411716      -0.96731178948437       3.25740398874216
H         2.09178974717443       0.12326526240125       2.90833784583021
H         1.79442131332225      -1.46093714578141       3.67287217183237
N        -1.44870319028311      -4.88629306867648       2.85303905418867
S        -2.28358907921046      -4.25654642514030       4.09777384963254
S        -0.10268024057412      -4.13010835713503       2.52336176996064
C        -3.10653474709598      -2.71004467074741       3.40430941370809
C         1.24484324905961      -4.61088412371126       3.75631814947937
O        -3.37122933640839      -5.15098737916718       4.36798286524053
O        -1.46280699125827      -3.79635297692105       5.18837535879254
O        -0.14182027202861      -2.67235468003941       2.65779832038657
O         0.40649742277223      -4.63680599255127       1.26441089116895
F        -4.37606741197548      -2.67870356206288       3.77067060399379
F        -3.05743403517403      -2.71850904940533       2.07168165296006
F        -2.51298027758458      -1.60988707211625       3.83542911099801
F         2.38211116205553      -4.79451978341912       3.08199154354335
F         0.95286265646431      -5.71752112392906       4.40555154029799
F         1.45309849097718      -3.62851038225813       4.62288904644856
