29
C9H16N2O2 optimized with DFTB in AMS.
N         1.55850064617482       0.50527112199084      -0.52465173302236
N        -0.33080368239484      -0.47103420931704      -0.29186589139691
C         0.95654409470589      -0.68462870785680      -0.57314299601118
C         3.00425853471935       0.67295341757741      -0.59185653407212
C        -1.29099374117233      -1.54096269940344      -0.05649194623769
C         0.65283414852073       1.48167329263006      -0.19185080185123
C        -0.54532621022406       0.86220092463246      -0.04311160186995
C         3.56761897188568       0.70411723008939       0.82564069881993
C        -1.26172233458468      -1.91592436073900       1.42239747789095
H         1.49505220117945      -1.70761533722668      -0.70935630578085
H         3.40723150806462      -0.17824230797577      -1.14647875026599
H         3.22766294961758       1.59745263526286      -1.13268549177723
H        -2.28269061127123      -1.19592130966438      -0.36325797453869
H        -0.99692507253082      -2.39219298604320      -0.67582081270167
H         0.92881049311054       2.51757607987508      -0.09843075017102
H        -1.51690479476748       1.25294668971098       0.20478510337333
H         3.21618440926374       1.58978046873611       1.35491052429879
H         4.65577997724513       0.72045488177537       0.78475692817297
H         3.24014616683076      -0.18273321330461       1.36960781126971
H        -0.24102432693742      -2.16495010530288       1.71560687201149
H        -1.90824011454523      -2.77529819604564       1.59351108533551
H        -1.60815644283168      -1.08115129503658       2.03163537052527
C         3.24486470943060      -4.05326202933428       1.34821522793871
C         2.43007625197411      -2.91368960842051       0.71569766545443
O         2.28440348895933      -2.96019572587652      -0.53600307010309
O         1.97372352386124      -2.02640827304665       1.45759276883836
H         2.76935471098527      -5.00487622652884       1.11582040427518
H         4.24562628622091      -4.05399912809774       0.91844450632896
H         3.30563101351004      -3.92261794535999       2.42646310246639
