52
C16H16F18NP optimized with DFTB in AMS.
N        -2.60598146777327       1.13199505771026      -1.84266933457713
C        -2.56737983728436      -0.29351456244427       0.25383638424161
C        -2.67102374074174      -1.75872005902586       0.69582026313092
C        -2.59211777398305      -0.22996050777579      -1.26789137006427
C        -2.76330281390294      -1.86379786792550       2.22113403750072
C        -2.86367311032682      -3.32103118105726       2.66682510380005
C        -2.60192799696251       2.23790677342721      -1.08755641765334
C        -2.68487845254958       1.21749003305631      -3.18264654971019
C        -2.64982196548017       3.48870041412399      -1.67094152532080
C        -2.72528688811936       2.44129373370798      -3.81293614687334
C        -2.70890438909248       3.60273387738406      -3.05160136473768
H        -1.64418457245375       0.14757455180974       0.64240453263181
H        -3.41836784219445       0.25550913912168       0.66288796286484
H        -1.79900056735976      -2.31497722979814       0.33539099926801
H        -3.56487575929824      -2.20362036019848       0.24749512856247
H        -1.71989140548104      -0.74013872932338      -1.68869858071808
H        -3.49438958877822      -0.72291086090674      -1.64150331617829
H        -3.64515923558854      -1.31482151975843       2.56650404769924
H        -1.88005177512837      -1.40106705978297       2.67459289895188
H        -3.73517798675130      -3.79816520266540       2.21738071007338
H        -2.95949628964763      -3.37349539423058       3.75127104958420
H        -1.97218200924357      -3.87479236059383       2.36864056760377
H        -2.57343949695648       2.11925996900672      -0.01388878750378
H        -2.73898745291821       0.28460323604662      -3.72962629601198
H        -2.66136384774536       4.36420737908734      -1.03468206231422
H        -2.81228338245247       2.47886487735883      -4.89066128179843
H        -2.76461006963653       4.57499855723982      -3.52504473646267
P        -6.40420303778994       1.20816902948802      -2.53985783765283
F        -5.11637425435297       0.11543286922746      -2.80117328572085
F        -5.27161337119749       2.47205648100663      -2.50373659890608
F        -7.50624401881197      -0.04865260218119      -2.58298813575000
C        -6.37896187129932       1.33531943793636      -4.50294809458540
C        -6.06006125981801       0.80706895530901      -0.59940228977750
C        -7.81828077713432       2.53910626700351      -2.07612298151400
C        -7.05485355272647       0.20515166312310      -5.31978851251514
C        -7.13100179570778       0.73033340621606       0.52990639911011
C        -8.56418024858223       3.53593098772169      -3.00402201278658
F        -5.08657199702556       1.36854178485622      -4.91424208829666
F        -6.92292620125198       2.49360999769517      -4.90956316988193
F        -5.10798288728424       1.65567796643352      -0.13259046904237
F        -5.50152946867828      -0.42716623082792      -0.54670796351026
F        -7.21885502673888       3.31743178462158      -1.14479008375427
F        -8.79004783732723       1.85038285496235      -1.44684734181624
F        -6.84908053902941       0.39579697787737      -6.62576377698727
F        -8.36606516188698       0.18290504448432      -5.11111405717996
F        -6.54918432261538      -0.98305567707413      -5.00063403967524
F        -6.53527851883089       0.20466789325340       1.61293259898251
F        -7.61302550849578       1.91057565638656       0.88974183604945
F        -8.13579795694209      -0.06856446710204       0.19981120931346
F        -7.72890654834037       4.42386942851066      -3.53748244086624
F        -9.46226030624563       4.21187469740439      -2.28614563670614
F        -9.21564879743658       2.90904904677399      -3.97832681111934
