63
C17H32F6N2O4S2 optimized with DFTB in AMS.
N         0.48286944290168       0.85636683578686      -0.64172690694879
C        -0.56660571157823       1.82161671310849      -0.17665503987458
C         0.26924920691533       0.56765418455395      -2.10194295733480
C         1.82871856669380       1.52910377711921      -0.53280149185958
C         0.42947105076796      -0.39360897573838       0.19100326669914
C        -1.98960189609383       1.34960394906005      -0.45559356197875
C        -1.13059629459447       0.06034886833726      -2.41272852819537
C        -2.18729903242786       1.05689939539718      -1.94169482687139
C         2.31320461669553       1.84714133405431       0.87809623863619
C         1.49894814485411      -1.43258520523199      -0.13965946430019
C         3.67187071623067       2.54872131186492       0.74945567732113
C         1.37585596126612      -2.61580667881732       0.82640765573184
C         4.32197094877377       2.81054325808204       2.10918830100281
C         2.44119941207887      -3.67333107332843       0.51897308964469
C         5.66520721832642       3.51520821867399       1.92228721639674
C         2.33765178441760      -4.85976613563912       1.47472505608410
H        -0.38153809109990       2.76392811018552      -0.69955839453480
H        -0.42419142546552       1.97891901146630       0.89426316249375
H         1.01943172035610      -0.15906355452682      -2.41096773928351
H         0.46008667708343       1.49961993523332      -2.63969556552263
H         1.75736078410197       2.44976941027298      -1.11468624145902
H         2.55173140781353       0.87808038458628      -1.02309188227083
H        -0.55906461991408      -0.83651513950272       0.05540603949016
H         0.51668768922365      -0.08149429237418       1.23486812743425
H        -2.66536628735620       2.14859970784446      -0.13895159296869
H        -2.22515931785456       0.46260344100029       0.13887163267043
H        -1.30182205318593      -0.91761043246606      -1.95433122561183
H        -1.19565715034512      -0.06596625852571      -3.49629969111321
H        -2.09736451113143       1.98585938502628      -2.51357610812019
H        -3.18724955488257       0.64944960471937      -2.10744317633076
H         1.60785321089369       2.49725042898557       1.40446697875340
H         2.43492600721670       0.93082204088201       1.46215870309018
H         1.37881230259341      -1.79177619917841      -1.16341865172883
H         2.49798822137328      -1.00274518788678      -0.05368982394642
H         3.53959864601618       3.49531877352073       0.21661132258416
H         4.33869287885928       1.92239766945513       0.15081332959998
H         1.49473241124348      -2.26209357504615       1.85664367856218
H         0.37816312018261      -3.06010283804912       0.73774993771188
H         4.47441974047983       1.85833951553812       2.62952470051525
H         3.66045016986816       3.42838146038392       2.72700150211240
H         3.43435410246970      -3.22090120994057       0.60347740822809
H         2.31844487507273      -4.02140881102804      -0.51152709966486
H         6.16200817924518       3.63835500117566       2.88474961715432
H         6.30884069349617       2.93118872311232       1.26406557166794
H         5.51750297892942       4.49888927868876       1.47566468690999
H         3.10380094970158      -5.59703755090525       1.23532074931862
H         2.47870257460585      -4.53428171004794       2.50641540301789
H         1.35930033647093      -5.33531481981062       1.39105912423636
N         4.57273814075528       1.08846103033895      -2.17972854562942
S         5.41100228225050       2.38968729550847      -2.63746529006585
S         3.63777242092226       0.37793076168844      -3.26017109697370
C         4.21525628041108       3.76406932270254      -3.09723857678656
C         4.60559345342272      -0.28896154162885      -4.72625773145937
O         6.04410439839044       2.88448947760148      -1.44268589798242
O         6.20785818003721       2.18717448239631      -3.81818245189385
O         2.62925025906085       1.25132896602306      -3.84014786483478
O         3.12768031335995      -0.81778145933512      -2.60742586695369
F         4.79256512464115       4.92993457624380      -2.85972986036248
F         3.11641753172513       3.68793784579306      -2.33542016664845
F         3.85817832003312       3.71140712600476      -4.36287489297514
F         3.92203843778500      -1.30924457179785      -5.22477208649481
F         5.79109999863954      -0.71641372252907      -4.33877600372589
F         4.73979917957679       0.63023019941838      -5.65774946296234
