28
C8H18ClN optimized with ADF in AMS.
N         0.47880688773771       0.17021235219777       0.12619418768968
C        -0.43109209906063       1.31634510267053      -0.30590995495388
C        -0.08659709065541      -1.14225923891902      -0.35088455479616
C        -1.87009497699375       1.11609335487846       0.12782393115923
C        -1.52434445420618      -1.36504801501763       0.09311048168408
C         1.83444305412297       0.43869710194010      -0.52279583713537
C        -2.43035549912167      -0.22048421932001      -0.35673433740375
C         0.64030014029771       0.18976802710218       1.61980231005577
C         2.90521679091576      -0.58290780277074      -0.20606922946401
H        -0.36046510481441       1.34150522165347      -1.40605006015542
H         0.04602839385236       2.23053517143017       0.11887516290824
H         0.57458876751555      -1.93753012563554       0.01953238794555
H        -0.02313426490919      -1.11619718866894      -1.45182349241337
H        -2.44915816164347       1.95865723971273      -0.28415984237211
H        -1.95629561733891       1.20002561894398       1.22431309440045
H        -1.56675747355201      -1.47899709075397       1.18950400074879
H        -1.85658998033672      -2.32578842734018      -0.33350986240581
H         1.63268958482212       0.48139820879241      -1.60461836284841
H         2.11091385068509       1.45290657069626      -0.15096451038292
H        -3.45556092133621      -0.37638266471451       0.01411427576453
H        -2.48262422982659      -0.21341170603982      -1.46150032908367
H        -0.34545388047231       0.12840325652989       2.08871648452180
H         1.24219763474968      -0.67676681128579       1.91592668823792
H         1.12876476874926       1.15983431438380       1.86629924382142
H         3.81596855452474      -0.27545667867632      -0.74161061671145
H         3.15889740746470      -0.59624294226491       0.86270195133977
H         2.65935902206871      -1.60278121415853      -0.53801204467395
Cl        1.75618021786111       3.26262907093417       1.21875965872303
