28
C8H17NO2 optimized with ForceField in AMS.
N         0.58739536752581      -0.00530345808288      -0.02263708828190
C        -0.29541141791668       1.09754991887131      -0.49202308151892
C        -0.31045396396547      -1.08783327306562       0.46450846108152
C        -1.71730575482645       0.76696415272924      -0.07476764881468
C        -1.72961655217998      -0.73387316185887       0.05759684205899
C         1.46705321493593       0.46892171695571       1.07256691322627
C         1.43202209354927      -0.49945676750390      -1.13626203062032
H        -0.28055034001496       1.20154251768569      -1.60228860490401
H        -0.00667141486114       2.09257012632943      -0.08120263707155
H        -0.28717448945657      -1.18231967257853       1.57541442884650
H        -0.04363035519746      -2.09136090015989       0.05953857831332
H        -2.45971641224347       1.11417012403716      -0.82611167872215
H        -1.93809095715732       1.23259992745405       0.91105785928537
H        -2.47237365798747      -1.06842576251144       0.81428199071850
H        -1.96521612037115      -1.19552102915148      -0.92668693081230
H         2.14321585653036       1.27882921983374       0.71765891495817
H         0.86541652859202       0.87350156719357       1.91774491101066
H         2.09670630734024      -0.36144002850128       1.46366682413090
H         0.80391603018559      -0.90577361810526      -1.96078105637428
H         2.05553249924839       0.32112260730342      -1.55435125906383
H         2.11096464761694      -1.31165538641410      -0.79165207417584
C         5.11016944596863       1.74035547072442      -1.39498522716122
C         6.28076404389772       0.84797006633801      -1.66299924103725
O         7.30398116336270       1.31159008140299      -2.13930975673735
O         6.21802927936360      -0.34349041456227      -1.40606911864964
H         5.39802508897850       2.52528115558282      -0.66493582297749
H         4.78265801813949       2.22282540653797      -2.33979651058219
H         4.26351885744293       1.15756908711599      -0.97629755862528
