31
C7H13F2N3O4S2 optimized with ADF in AMS.
N         1.34490482957231      -0.83633373017055      -0.34788033752777
N         0.57418169071480       1.18615540723523      -0.50961593103297
C         2.29024569880954      -1.96582566504538      -0.39734038795604
C         3.05525616564438      -2.12461160922427       0.91420853065780
C         1.60341501058268       0.38875494170088      -0.82873301921377
C         0.12462578271141      -0.81820326359984       0.29620372947446
C        -0.35706001177796       0.45498565621400       0.19898813024112
C         2.20964935422227      -2.61212950303036       2.08570526920618
C         0.48889526789240       2.62075549767731      -0.77931197394531
H         2.97837884521906      -1.75593905718469      -1.22917256735841
H         1.70243650151159      -2.86488352834806      -0.64385676544224
H         3.87562087248302      -2.83246384977819       0.71062564222175
H         3.53618467714470      -1.16367923128991       1.15766524121907
H         2.49904696821767       0.67030578509338      -1.37647707516638
H        -0.29718584394027      -1.70438593787029       0.75200253921085
H        -1.27310138342419       0.90155069138763       0.56530139811269
H         1.70738755067082      -3.56631289345209       1.85419035940786
H         1.44569550981940      -1.87433461841882       2.37569916845370
H         2.84528288155269      -2.77407885847587       2.96885726520002
H         1.08044498570940       2.84831919890512      -1.67113389202707
H        -0.56300421709727       2.88119612768526      -0.94363046845911
H         0.91435173814232       3.16173439026299       0.07574771768122
N         4.50871550697248       1.03467211792956       0.30152058044799
S         4.14368354794746       2.58559659392199       0.19746699317717
S         5.34967170712539       0.22915816162847      -0.80391898143311
F         3.51569143215023       2.74259878907686      -1.36926374831527
F         6.59622745878361       1.20388858518924      -1.21165968427278
O         2.98234443174229       2.81742380036005       1.04371815229015
O         5.25585098694787       3.50796422014920       0.19950522310234
O         4.59771208811373       0.05679871574783      -2.04618226498500
O         5.93774934703618      -0.93666666727669      -0.17875631066913
