41
C11H24BF4N optimized with DFTB in AMS.
N         0.18903714132196      -0.56736694751888      -0.31700057131129
C         0.33465932290999      -1.35629406574756      -1.58908698546444
C        -0.79212336238224      -1.37828274741166       0.47864233405949
C         1.48849014512184      -0.49350924662549       0.42813597581596
C        -1.03729527968081      -1.96300020526559      -1.86808157032676
C        -1.79183024180579      -1.92477243296425      -0.53205939020447
C        -0.35865051769107       0.78640665788716      -0.65058218088423
C         2.60144602183187       0.21701249788754      -0.33669397391147
C        -0.51478309651278       1.73324567118603       0.53935352128818
C         3.94845644423511      -0.13863473194302       0.30611243545077
C        -1.21852324679288       3.01122800919455       0.08336552763268
C         5.10368681929831       0.55706418819063      -0.40872087841988
H         0.68305215814227      -0.70243403640290      -2.38890244540875
H         1.07169979704589      -2.13976035452464      -1.40360106374886
H        -0.23325322736080      -2.19518027658627       0.94034710269202
H        -1.24461675053705      -0.76068606079189       1.25357455474336
H         1.78421635638392      -1.52560132436867       0.62592769701927
H         1.29342500502962      -0.00322404292951       1.38413255483888
H        -1.57207132324332      -1.40101006423570      -2.63751988175423
H        -0.90935710814806      -2.99146396332583      -2.20852916816647
H        -2.10170361731392      -2.92580363636775      -0.22951166768104
H        -2.67905681132754      -1.28975777575061      -0.59901040251194
H         0.31437579402547       1.23493978578405      -1.38596253556769
H        -1.32906138105273       0.62710211684605      -1.12760943695029
H         2.61274206812124      -0.11061931143561      -1.37931419686638
H         2.45465077374536       1.30198526496343      -0.32284723921083
H        -1.10140699730515       1.26462281333067       1.33336795160019
H         0.46479781593299       1.99239731254360       0.94855477004535
H         3.93798376374747       0.15537403660269       1.36082643415481
H         4.08411624435624      -1.22365728093311       0.25818525717727
H        -0.64534673212286       3.50483375803879      -0.70224249969356
H        -2.21419650087471       2.78541325839554      -0.30007905298754
H        -1.31662561241290       3.69593267133236       0.92506858195535
H         6.04772157890314       0.28175052119771       0.06106464124693
H         5.13821282573637       0.25991532547539      -1.45787046598298
H         4.99221633210226       1.64151459949439      -0.35757730192237
B         1.55511984855556      -3.98568638725137       0.32327706643575
F         1.32140282691052      -3.30904390281443       1.54906072981714
F         2.47608234805731      -3.18808406679200      -0.41337294709652
F         0.33126387923595      -3.97325254549767      -0.39261872136862
F         2.02208519291394      -5.24899639166615       0.51646812046719
