42
C12H28ClN optimized with ForceField in AMS.
N         0.00354336692449       0.01473806719963      -0.00154393525962
C        -0.84464788621407       0.65324471863505       1.06790932979030
C        -0.84732111902012      -0.61187312546010      -1.07549627723314
C         0.84273811956564      -1.06288588992992       0.63423767324867
C         0.86302315133781       1.07944316783471      -0.63259385008748
C        -1.92161917018737      -0.25870113362280       1.71125094781522
C        -1.90557697709031       0.31445218309591      -1.72686899086896
C         1.90193624376310      -1.72538395474578      -0.28300153420978
C         1.93686272998605       1.71625146299689       0.28664500446341
C        -2.71441200395219       0.50383766996199       2.77080110394147
C        -2.70968562581404      -0.44306232056724      -2.78155886616643
C         2.68564207733773      -2.79074666321428       0.48072781881069
C         2.74298149577339       2.76869870297597      -0.47240486518943
H        -1.34618516867989       1.56626189673929       0.67630600657109
H        -0.20373239632740       1.00918059768035       1.90301170802633
H        -1.36546242777149      -1.51505532702078      -0.68510291333052
H        -0.20761252093120      -0.97896813945809      -1.90681208565421
H         0.19445228750138      -1.88817200703103       0.99779068472202
H         1.35665742289387      -0.67415663786497       1.54169596187269
H         0.22981146270109       1.91877385094628      -0.99269545100904
H         1.36967652902590       0.68438990965857      -1.54138722537605
H        -2.64291955890390      -0.62977831604360       0.95597073837973
H        -1.45524454872446      -1.13052978433463       2.21242592365011
H        -2.62204869322364       0.70392471079969      -0.97637624775541
H        -1.42046767308108       1.17360149591307      -2.23231286629501
H         1.42019962617542      -2.22649338629370      -1.14655934105530
H         2.62916188463438      -0.98151585592748      -0.66540231848032
H         1.46611434713156       2.22095834679848       1.15421221877811
H         2.65031524128324       0.95654270575180       0.66361605687243
H        -3.47301973801445      -0.16930575149001       3.22283852046454
H        -2.03805022514544       0.86418064319099       3.57542282678588
H        -3.23703137557575       1.37113354706725       2.31407108256174
H        -3.45890073219778       0.23760226323161      -3.23757903474104
H        -2.03931646614709      -0.81869811081098      -3.58411624465778
H        -3.24396587451878      -1.30001350453678      -2.31866188412027
H         3.43612272121530      -3.25444055175049      -0.19331699515733
H         3.21674209546417      -2.33645180732803       1.34415988904667
H         2.00096507905285      -3.58551063879774       0.84758669927301
H         3.50047731475570       3.21675186220095       0.20458256186275
H         3.26833010284772       2.30643464154868      -1.33522190327405
H         2.07508775896984       3.57721337444267      -0.83966068469166
Cl       -1.52332772012016      -4.42300169134141       0.19034674757600
