36
C10H19BF4N2 optimized with DFTB in AMS.
N         1.59699919334623      -1.21623673407506      -0.38527787912737
N         3.16259240080938       0.25099704145567      -0.52726892157377
C        -0.71663767973501      -1.99210495336886      -0.04542884610355
C        -1.33083579678951      -0.62489194565996      -0.36355174278721
C         0.60053940511633      -2.20573138967933      -0.78576792438323
C        -2.65453754061063      -0.42243280358639       0.37971594077102
C        -3.26452712582118       0.94693304135077       0.06407204880917
C         2.23117219806688      -0.40192315068918      -1.22047736903429
C         2.14673411507011      -1.10023561905908       0.86278434181375
C        -4.58466474578985       1.15307597862936       0.80468985340619
C         3.13631617115879      -0.17339014282492       0.77315720679284
C         4.16869588531894       1.10608649215078      -1.13389208243598
H        -0.55560672839413      -2.08453387297573       1.03335071034347
H        -1.40418235969501      -2.78574003848578      -0.35081308290879
H        -1.49972546647410      -0.54547611393580      -1.44272556207363
H        -0.62655702642812       0.16472575281058      -0.07783389224903
H         0.47439349907973      -2.11571655586382      -1.86679815161373
H         1.02327098202129      -3.19046118113311      -0.56793112163876
H        -3.35757319732139      -1.21128314112861       0.09165193556872
H        -2.48248808758613      -0.50663186247319       1.45848241960086
H        -2.55892493697408       1.73438714832448       0.35100866606066
H        -3.43550301388464       1.02871726959739      -1.01461907834934
H         2.04642658937429      -0.31290773321995      -2.27731246943179
H         1.80482955063231      -1.68375655439035       1.69923052709679
H         3.81543890513912       0.20899023960470       1.51491419924282
H        -4.43132971426589       1.09530310779321       1.88327808488950
H        -4.99902037950133       2.13248515549376       0.56468345744425
H        -5.30806098601198       0.38942393013387       0.51584881584362
H         4.71780114489175       0.50550470822948      -1.86235681814195
H         3.68301987832892       1.94338272256371      -1.63514673185979
H         4.83960424820134       1.47227953122055      -0.35972257552238
B         3.34654196416171      -2.56712329646963      -2.80705633471604
F         4.10823378788094      -1.37613183228931      -2.61241745756041
F         3.97510244089257      -3.42091245370348      -3.66463071276888
F         2.07903361563786      -2.15546412453342      -3.31342497665847
F         3.12460544025448      -3.14736484641333      -1.54378252224529
