43
C13H27NO2 optimized with DFTB in AMS.
N        -1.27997242761458       0.06248465738208      -0.18881603860762
C        -1.52167821857246      -0.98192385317024      -1.26300851521591
C        -2.37474376014747      -0.12922662067483       0.83778108844257
C         0.05298217688700      -0.17323360015423       0.46602196632689
C        -2.92856523188268      -1.50461936926510      -1.03710404303223
C        -3.06591233937718      -1.43596705224759       0.47849865369772
C        -1.37249194234123       1.42385094470737      -0.80351439954125
C         1.24096170442495      -0.02188752599369      -0.47939636350116
C        -1.12635127213370       2.56586940806422       0.17285957554647
C         2.50646248107029      -0.52943834140072       0.22224968652176
C         3.73633907571061      -0.35332785519644      -0.67173978468300
C         4.99491044696104      -0.88535259347535       0.01156362370652
H        -1.37096093123013      -0.53401746362534      -2.24487357881350
H        -0.79427184862024      -1.78676396841112      -1.10238536796211
H        -1.93641403237793      -0.13405430992450       1.83559560075800
H        -3.06993397680435       0.70977652831321       0.75983932491099
H         0.13768667358654       0.51585549306956       1.30962355926871
H         0.02588680857029      -1.20151812422086       0.83725177604934
H        -3.67835418109222      -0.88493079595809      -1.53823438269506
H        -2.99794843473128      -2.53466195908101      -1.38786981247002
H        -2.53854500703459      -2.28686743807397       0.91844771691991
H        -4.10365706328012      -1.43471154670525       0.81321277781367
H        -2.37337224531183       1.50543804766170      -1.23570205178799
H        -0.64189770666642       1.46806357111898      -1.61391977602576
H         1.37586560753498       1.02236034278347      -0.77992687399735
H         1.07654254564535      -0.62586893928537      -1.37414445854821
H        -1.77356906738739       2.49776910205072       1.04564961716362
H        -0.08961285379563       2.58966686257871       0.50366607805628
H        -1.34143871658099       3.50182450830564      -0.34223167200483
H         2.37092903700630      -1.59033873158657       0.45326432918241
H         2.65099979987256       0.01354553622168       1.16329848254313
H         3.57950376473163      -0.89106972770002      -1.61246333404424
H         3.87096415786599       0.70808738552527      -0.91076608235018
H         5.85851021575149      -0.75770374158827      -0.64171391678337
H         5.18120162154060      -0.34868336361924       0.94318909199853
H         4.88403159412260      -1.94615385987116       0.23860679544667
C         0.49331552732870      -5.26368128739382       0.14651276275224
C        -0.15080290953184      -3.88029200802277      -0.10661865677944
O         0.64390711196472      -2.92248154231449      -0.27311609179116
O        -1.39374564439258      -3.81982947194715      -0.12624954533541
H         1.09772845297564      -5.53496481811107      -0.71817148928175
H         1.14445208261383      -5.20031834583869       1.01753350252793
H        -0.27469081765826      -6.01670292082570       0.31098869681819
