46
C14H30ClN optimized with ADF in AMS.
N         0.20415128724955       1.17573619375166      -0.34018607637953
C         1.22490158190825       1.82565494809197       0.57924812597812
C        -0.47369366134166       2.35949913266386      -0.98983838949328
C         0.85538550259503       0.30429534169431      -1.39543449601799
C        -0.79894317259526       0.40183557732120       0.50595956363554
C         0.49390461309439       3.02998848486785       1.16133453052235
C        -0.57197887760840       3.42664371172992       0.10554854734036
C         1.59276835555360      -0.91929699471517      -0.86071071026080
C        -1.74591996044455      -0.47761566201712      -0.28477434249287
C         3.09575962059534      -0.71281815287695      -0.67130816621220
C        -2.79028179673816      -1.07930041716754       0.65663843293105
C         3.76029137626584      -1.94729271763444      -0.06884734649430
C        -3.74835654669624      -2.02638879111442      -0.06096841771527
C         5.26312587103583      -1.76302359489504       0.11594289216397
C        -4.78817803001854      -2.62556455872292       0.88131087016703
H         2.06081647883758       2.13266964505466      -0.06663793732573
H         1.54682503489596       1.06545206532442       1.33075108817283
H        -1.43645443130404       2.03680078097472      -1.40633033795118
H         0.18012050957820       2.68282613478154      -1.81324276397541
H         1.54351455183435       0.97566607076011      -1.93555102185476
H         0.04585893408533       0.03110573544668      -2.08709361933971
H        -1.36092657155251       1.16294193320988       1.06729014537800
H        -0.19797630166426      -0.17908672644035       1.24410747792076
H         1.20345234849237       3.84471808221309       1.36203577155231
H         0.02584149408216       2.76310256431994       2.12007290102248
H        -1.57908508540920       3.45323646555848       0.54668722949887
H        -0.38189497363218       4.41952200966544      -0.32642867400230
H         1.42544734218983      -1.74899154341696      -1.57026543051670
H         1.18262746046312      -1.23125821556452       0.11805506545840
H        -1.19119368208490      -1.30208797116903      -0.76277304808969
H        -2.26383359392949       0.08023465899218      -1.08764116475023
H         3.26658406733946       0.12875994555822       0.02009497482769
H         3.56839238324148      -0.45258769433910      -1.63879266880560
H        -3.36747777889899      -0.26720568178610       1.13604908978767
H        -2.26976582849650      -1.61663293129481       1.46897526068339
H         3.56278164669581      -2.82511382457493      -0.71212611169515
H         3.27933086951813      -2.13355850793674       0.90826976426970
H        -3.16558924143726      -2.83594618584616      -0.53674585207562
H        -4.25447829170203      -1.48241159341758      -0.88016337962918
H         5.72677600733323      -2.65900160404175       0.55635066248989
H         5.76484471056956      -1.55835373551426      -0.84462573576286
H         5.46569176390608      -0.91686215891570       0.79202562716084
H        -5.47072806006034      -3.30664054061544       0.35134503437081
H        -4.29977517387207      -3.19394503749333       1.68837242162399
H        -5.39523167975358      -1.83456802259056       1.35002730962734
Cl        1.47122019127967      -0.79684285337922       2.58819216175700
