38
C12H18F3NO3S optimized with ForceField in AMS.
N         2.36973026266532       0.02549638353654      -0.52763556574000
C        -1.44448978273060       0.05114966893546      -0.69555234382016
C        -0.04328728352666       0.01911226654866      -0.07803236888845
C        -2.51973804914391      -0.01556704794630       0.39488543003633
C         1.04379000842190       0.06746621258311      -1.15501689389043
C        -3.92470118634408       0.00065411105029      -0.21559053637761
C        -4.99545502988998      -0.07031369056860       0.86881641308113
C         2.97136374634651      -1.18050988604801      -0.29107529325411
C         2.97386922602599       1.19003342896924      -0.13915547317993
C         4.21275740547844      -1.24031321000369       0.34598597009839
C         4.21956500507531       1.16616424423377       0.49202100618775
C         4.83902941747220      -0.05816685061776       0.73730855080054
H        -1.56325057651538      -0.81471985266542      -1.38385916173537
H        -1.56836233180223       0.98974814028735      -1.27990355216794
H         0.08022094986373       0.88953820377076       0.60331119098116
H         0.07754101285868      -0.91332581068442       0.51612077836005
H        -2.38706804626319      -0.94890139002411       0.98598993082945
H        -2.40505735362812       0.85476905258950       1.07854617622254
H         0.93519932377380       0.99330952850662      -1.76097300293923
H         0.92140055500254      -0.78893749880066      -1.85541208972944
H        -4.06744410902172       0.93418885504940      -0.80240901320808
H        -4.04641615398972      -0.86841992002680      -0.89839824576711
H        -4.91142568859749       0.80230360282066       1.55120840875998
H        -6.00128758369320      -0.05887193753388       0.39891525638613
H        -4.88795133430875      -1.00728977839378       1.45602552414416
H         2.48699427399135      -2.10512824646089      -0.58242855899939
H         2.48875264660605       2.14447475698978      -0.30604543525840
H         4.68104276862883      -2.19643078627036       0.54011431572038
H         4.69562008045558       2.08933070954601       0.79592073769114
H         5.79908363527890      -0.09135309966771       1.23559009272468
S         1.71627940483207       4.09159703938667      -3.58484469911082
O         0.63873749913565       3.47705227714757      -2.67991284313194
O         1.65062948556531       5.58577908190324      -3.23666256777017
O         1.07471764595393       4.03282458592050      -4.97890629806367
C         3.36602714669415       3.34096949289108      -3.46113783686700
F         3.28953387002671       1.99858808593142      -3.77857751878732
F         3.84462296583703       3.48232905248925      -2.17376475870818
F         4.22673044756503       3.97167007152553      -4.33826459692908
