39
C11H19F3N2O3S optimized with DFTB in AMS.
N         2.34660887066817      -0.79246732867648       0.08811939826076
N         3.92715036217702       0.44942601446266      -0.68073614528514
C        -0.09330912241748      -0.69405914242124       0.39673374210318
C        -0.52800983373158       0.00676982197072      -0.89200306779366
C         1.12973853542152      -1.59356963220543       0.17731156787824
C        -1.59698978305701       1.06651650355139      -0.61073895720586
C        -1.94842094571276       1.83398487781629      -1.88846574451988
C         2.86087218032345      -0.26980765643743      -1.02387849604372
C         3.06875804736434      -0.35210775364370       1.16448471264780
C        -3.01242891837224       2.89732245138170      -1.62293189980587
C         4.06616296034212       0.43081405186294       0.67687046355311
C         4.70104116113509       1.27152831108876      -1.59619503146606
H         0.15193849385624       0.05129962214546       1.15745321918429
H        -0.90562154893567      -1.32015687206227       0.77757005119412
H        -0.90767859385861      -0.73482327334550      -1.60426781338436
H         0.33763303341353       0.49682024218497      -1.34474702832659
H         1.03511570698366      -2.17242708655858      -0.74601523744873
H         1.25526942578783      -2.28195382056555       1.01738302994843
H        -2.49436190720883       0.58917245517236      -0.20079875382458
H        -1.21345159929715       1.76673744973473       0.13762356603750
H        -1.04458508380680       2.31426022874326      -2.27631351488405
H        -2.31165024246414       1.13398377262656      -2.64985335215723
H         2.48670535433785      -0.40211211834174      -2.02327182782551
H         2.81023358788051      -0.62016437257933       2.17337103963784
H         4.83116709203672       0.99646879924230       1.17804958932438
H        -2.65300750895925       3.61688351573265      -0.88696342824415
H        -3.24617627757337       3.43084583793881      -2.54481478682707
H        -3.92793861831444       2.43944269138094      -1.24404309805297
H         5.23956909737889       0.63453414692057      -2.29865986746657
H         4.01068608750559       1.92298719819262      -2.13287735062759
H         5.39383795452036       1.87546335305968      -1.01579587669233
S         1.98964085106199       2.78698709228335      -0.22025591980584
O         1.80866606870147       2.22132022275489      -1.55623404870894
O         3.36307512351772       3.15884940577182       0.07549371601668
O         1.32791618990131       2.03428244969328       0.83229072225256
C         1.07427425028625       4.39259229896549      -0.28827687041077
F        -0.22785379621468       4.17547350932308      -0.46002660833652
F         1.50744478883422       5.13665499318953      -1.29888630939070
F         1.23589528858814       5.07686705044641       0.83666637709577
