65
C19H25F18N2P optimized with ForceField in AMS.
N         1.38691174733017       2.25260542978224       0.09668357018244
N        -0.82967795916493       2.36639642837677      -0.04102390912167
C         2.76921266915924       1.92802678306019      -0.24926465123166
C        -2.18874648356399       2.22404676712505      -0.56138945795189
C         3.16129622125061       0.54722161667430       0.29684721244448
C        -2.45410182667715       0.78498846719502      -1.02882507682762
C         2.29763803653937      -0.57382906627568      -0.30281062728951
C        -2.34864513135767      -0.22395115983780       0.12447178865042
C         0.31858199914141       2.17835633710565      -0.72037844405625
C         0.90041157859233       2.50992567553805       1.32749403811307
C        -0.47444460905723       2.58285747422903       1.24150004636964
C         2.73701258024865      -1.94901900442825       0.21027187607420
C        -2.59532550055588      -1.65375450470697      -0.36943911029479
C         1.85592863096888      -3.05579415419813      -0.36343540468284
C        -2.50135309790677      -2.65634548470884       0.77729960569559
H         3.44449084561299       2.70191545126531       0.17527997376432
H         2.89869262541668       1.93896434108465      -1.35402236414128
H        -2.32478005712164       2.91959839195509      -1.41716452215924
H        -2.92957120940356       2.50202195864436       0.22043870234524
H         3.06186611115102       0.54600842932597       1.40425897818444
H         4.22899481097205       0.36132725078681       0.04868518158508
H        -3.47649567548538       0.73824024041464      -1.46316306077426
H        -1.73244841337606       0.51671797302873      -1.83094778794364
H         2.38009337574006      -0.55044991212738      -1.41183798338302
H         1.23356640425378      -0.41337016953654      -0.02436345756632
H        -3.09722456345303       0.03308637079523       0.90587658295238
H        -1.33446443806864      -0.17196015964096       0.57674750422284
H         0.37148982678847       1.92429071146039      -1.77191558232991
H         1.49592655582156       2.58963581030033       2.22764566171841
H        -1.16458533455334       2.73258510276825       2.06162343362832
H         2.66822808229231      -1.97465403843467       1.31972907481426
H         3.79247997548550      -2.13945039969834      -0.08265583678622
H        -3.60589721200620      -1.72447539284903      -0.82761431763720
H        -1.83871245832280      -1.91882688790306      -1.14013306974144
H         1.92703174722961      -3.07020999975127      -1.47197873547478
H         0.79669064624227      -2.89945695794684      -0.06707037045655
H         2.19195153165592      -4.03937088165569       0.02710032305749
H        -3.26910371969423      -2.43303631087304       1.54854743548661
H        -1.49315302720782      -2.61870584372123       1.24231385482910
H        -2.67527455960906      -3.68228193287060       0.38979505682354
P         0.93121958680054       7.29815965885358       1.06847661109902
F         1.35539729430668       5.93995980584833       2.04074867351572
F         0.71663058347337       8.58749725053051       2.19005137780431
F         1.36259843600514       5.92236944480279       0.12939572590159
C         2.72502523671725       7.86298170237963       1.51387253611607
C        -0.76705341770761       6.76795116973668       1.83670417403382
C         0.34907436822048       8.02077767743362      -0.60883205611188
C         3.86949432189764       7.01636933337288       0.91638769664692
C        -1.96948019183000       7.74067158520607       1.67818938046657
C         1.40110770767151       8.21137489298956      -1.71532102852440
F         2.89601986715940       7.81343254173343       2.89373909366569
F         2.91080368746694       9.18157620216765       1.13106165943456
F        -0.62062275266808       6.55333439834927       3.20383579531620
F        -1.13972421417826       5.56462569894866       1.26151939117906
F        -0.23046374317482       9.25367356561055      -0.36762003094430
F        -0.61565359087123       7.18089786200483      -1.13778504525111
F         5.07934814767814       7.55174509202573       1.32269254397015
F         3.84703082785430       7.01810379220598      -0.45985004192197
F         3.80933124878781       5.70977341971487       1.36613008912641
F        -2.98678507025149       7.32399520115443       2.51937979786125
F        -1.65263352546283       9.04108554640248       2.02152890446139
F        -2.47407150558659       7.72635080062536       0.39386670160455
F         2.42072399700864       9.04711019899243      -1.31305688515328
F         0.78876876559127       8.79805041515763      -2.80907695845445
F         1.91519481218431       6.99616023260126      -2.12856404683368
