45
C11H20F6N2O4S2 optimized with DFTB in AMS.
N         0.24421755702078      -0.59824208657209       0.68665339272216
C        -0.56714368816785       0.65719189558713       0.81600069802295
C        -0.43177256183960      -1.54255875277095      -0.26694382789402
C         1.58219076627457      -0.18780541078807       0.12268641704661
C        -2.01538943366725       0.39742281707686       1.21411304478496
C        -1.88291310873625      -1.82421950513332       0.10024839414320
C        -2.68867415932881      -0.53385815493812       0.20840549596137
C         0.44036056007223      -1.23333291886643       2.01795598659851
C         2.62680866325467      -1.30083284649676       0.03822304645222
C         3.79973805474261      -0.83297375133825      -0.82108376735825
H        -0.53550464798996       1.16003170130931      -0.15506796193746
H        -0.07115310896037       1.28902032345542       1.55674307792833
H         0.13828172947463      -2.47124231423969      -0.26346521245972
H        -0.37438497671380      -1.08586617168501      -1.25928430392998
H         1.95441994312090       0.62024446700781       0.75916949922432
H         1.38635037300298       0.22140631940137      -0.87294889629367
H        -2.52673108016651       1.36339535834788       1.23702219110836
H        -2.06645889326791      -0.03127438551921       2.21804477808787
H        -1.93463884638950      -2.38062439534944       1.03782989048589
H        -2.29546498669163      -2.46258072430600      -0.68475727326950
H        -3.70559380117887      -0.75834415380072       0.53756548516155
H        -2.74548869035362      -0.04194099847924      -0.76838177820884
H         1.03013018054098      -2.13588244415576       1.88854928740534
H         0.95878042291126      -0.53253488919151       2.66954131283932
H        -0.52051155094888      -1.50160001253089       2.44522103431559
H         2.99268478279762      -1.54956236470542       1.03567909792254
H         2.19960456066093      -2.20499393861745      -0.39692763614657
H         3.47297946248729      -0.61806074286401      -1.83941302609181
H         4.25171150247565       0.06645773228393      -0.40091640124910
H         4.55403770862262      -1.61774504182447      -0.85572721957890
N         1.20101746488147      -5.89778476384292       2.25401783619441
S         2.32111254746300      -4.83827538026870       2.68951838364573
S        -0.01936548799175      -5.37004714469368       1.37485394087046
C         1.72635820879915      -4.11549077595927       4.31491761477871
C         0.54458255548905      -5.43758612997534      -0.41400344284156
O         3.50683923914605      -5.56430023975724       3.04284164195921
O         2.46617044824408      -3.67301556572635       1.82972846738912
O        -0.38273547557605      -3.96715147894003       1.54550868180420
O        -1.07428286433315      -6.34085980922912       1.43860176175870
F         2.75307567651075      -3.58877233480279       4.96549551531079
F         1.16352578774911      -5.03982938275268       5.07124068249161
F         0.83724484903883      -3.14506454297408       4.09805501856602
F        -0.52122430850787      -5.45707278235318      -1.20476439854866
F         1.28178914242709      -6.50394288261642      -0.65557108103477
F         1.25440216110137      -4.34885323840511      -0.72408049583723
