30
C8H8F6N2O4S2 optimized with ADF in AMS.
N        -0.52905788401444       1.51008969296763       0.30325967517406
C        -0.45784263332136       2.34340228090547      -0.75293264256426
C         0.58367317205345       1.14835280831186       0.98362317372343
C        -1.85388382693507       1.15486590948954       0.83849306963616
C         0.76565058965423       2.82565482438090      -1.18646590591352
C         1.82187006737336       1.60616376060500       0.59061467209797
C         1.91846912639967       2.46050967047350      -0.50976713570370
H        -1.39410450658730       2.66044847028084      -1.20485795023986
H         0.43191260368504       0.50440751276583       1.84734992892616
H        -1.78922981139324       0.18774986747573       1.34925946559464
H        -2.14966785320893       1.95440505982578       1.53164060567453
H        -2.56831827462110       1.09660630601943       0.01078742487782
H         0.77252556624589       3.52889626014686      -2.01818321702165
H         2.70199146574976       1.30619537561652       1.15804681380485
H         2.88861579906244       2.85319728827816      -0.81730121470200
N        -1.83804041364314       6.29521293491171       0.53758037718941
S        -2.32602122000227       5.80472937383811      -0.91004120451086
S        -0.83159551185331       5.51479873453320       1.50967298793120
C        -3.90256288253746       4.83023487836778      -0.54874286920491
C         0.87211571892331       6.16206721823970       1.01542639536488
O        -2.80373183076491       6.95436647220750      -1.65589962333481
O        -1.48212677273529       4.81053715439326      -1.58854079050046
O        -0.71199313265580       4.06435213775627       1.29456237162656
O        -1.00818044036734       6.00637683642479       2.86494911509138
F        -4.44795440786218       4.42140014780883      -1.72252203413548
F        -4.80861304986841       5.56378430893431       0.12168491263775
F        -3.63361031416990       3.70660509002366       0.18830847124195
F         1.82294068885185       5.47463650882862       1.70814115922515
F         0.99895764141904       7.47234193018988       1.29717806502631
F         1.11132652602342       5.97685221269934      -0.31009537971270
