34
C8H18F6NP optimized with DFTB in AMS.
N         0.11579645465186       0.33680324839310       0.00948196540969
C         1.03195943418381      -0.42870399431957      -0.92002340560916
C         1.01534575493509       1.05590184345252       0.99521434489514
C         2.44426723411281       0.05529595048434      -0.62243806567002
C         2.38552169407536       0.41359487397266       0.85793313897507
C        -0.77226973709272      -0.60480518255022       0.76411943299206
C        -0.67736446486260       1.33202726407991      -0.79605870666255
C        -1.73936866240908      -1.38857732978519      -0.11234992168324
C        -1.64017782490828       2.16960320643084       0.02838376377826
H         0.72934322133182      -0.25011755761510      -1.95148789659085
H         0.93561277387948      -1.49350507348295      -0.69891736911270
H         0.59544803682018       0.97276705480758       1.99722056694905
H         1.05985549916417       2.10542511350472       0.70658002903106
H         2.67538458010381       0.94060460801560      -1.21716997479197
H         3.17607545484846      -0.72417474054354      -0.83676880705347
H         2.46694355884557      -0.48291286594802       1.47969008000231
H         3.16852086836001       1.11729560895629       1.14080986151969
H        -0.11471136486225      -1.28968261068364       1.30630696137166
H        -1.33124751742121      -0.01258315027536       1.49191258091354
H         0.05361595259840       1.97829541011852      -1.28262744828339
H        -1.21804851000749       0.77375047048731      -1.56340710887839
H        -2.24404104765516      -2.12060635576678       0.51774673825007
H        -2.49471982187874      -0.73987299272813      -0.55188875207105
H        -1.22306897885797      -1.92020631068519      -0.90986627635976
H        -1.98931927800796       2.97914041408195      -0.61198215990524
H        -2.50070859379651       1.59158203959242       0.36493775426960
H        -1.14563984253026       2.61589256696093       0.88779324484856
P         1.37528141505273       4.52408993032030      -1.02524352313089
F         0.75046641786978       6.01351662981305      -0.87263517339626
F         0.02442757840240       4.02037872283494      -1.86076493895422
F         2.11391743905661       4.89928945673828      -2.42360323765118
F         1.97045993931653       2.93836745879352      -1.14887179287751
F         2.69820445383923       4.92457589954906      -0.15912661938371
F         0.60864650864214       4.04645341709585       0.39459717865982
