52
C14H30F6NP optimized with ADF in AMS.
N         0.45396796121716       1.40756191645774       0.42955545629773
C         1.25527895519809       2.20567228965474       1.44860072583619
C        -0.33499753190735       2.49233113658602      -0.27143780436885
C         1.37946529046755       0.72258839832777      -0.56862925942593
C        -0.44857191950750       0.41697469035554       1.13675395098281
C         1.67705982271657       3.47606491379129       0.71251964263894
C         0.63052110743377       3.67088141900630      -0.41629572840165
C         2.14376181672843      -0.46388928121129      -0.00929978694129
C        -1.35481825775867      -0.38533391444563       0.22006444772507
C         3.20074055383918      -0.95656513947772      -1.00077287458841
C        -2.20528658739836      -1.34618433538730       1.05894533800006
C         3.96448686308353      -2.16696895389228      -0.45937069490397
C        -3.12733597651942      -2.22017966989323       0.21041520148537
C         5.05464247335610      -2.64548688536533      -1.41410217277124
C        -3.96432149134665      -3.17913645678916       1.05407984714278
H         2.06200480861957       1.58779145792503       1.86056580404593
H         0.56062415077664       2.41689440672239       2.27306398586937
H        -1.16972654798250       2.73840097918871       0.40127822344287
H        -0.73805882217620       2.10987604103980      -1.21757242964144
H         2.07076706335965       1.50191788639158      -0.92404289618878
H         0.74634747971572       0.42619757713906      -1.41864363380140
H        -1.04084689509503       1.01748881230291       1.84454817100462
H         0.20241570696431      -0.23015059198766       1.74063018703377
H         2.69218079508728       3.38415176572975       0.29925077544663
H         1.69338450339614       4.32327987491521       1.41224017752474
H         0.08232292432969       4.61882728889209      -0.31986908962822
H         1.10803918310504       3.67521986311150      -1.40694574903536
H         1.45341811334663      -1.29029476476896       0.22037127757672
H         2.63013194363819      -0.20829414680325       0.94417027612145
H        -0.76228085515201      -0.97489922032458      -0.50033647327308
H        -2.01957929333728       0.27618770467836      -0.36397977354592
H         3.91900541040236      -0.14349463726100      -1.21747508032228
H         2.72837381407125      -1.22416297280243      -1.96533794067206
H        -2.81084580983936      -0.76694334504475       1.77972114878984
H        -1.53651435729637      -1.98514650031127       1.66275543321263
H         3.25251198896253      -2.98805495789921      -0.26268707456486
H         4.40516543974439      -1.90823295192713       0.51900575493633
H        -2.52038725932998      -2.79816486304096      -0.51014501910945
H        -3.79649064135375      -1.57682568656324      -0.39068768396045
H         5.58370585410585      -3.51771779366135      -1.00258588268395
H         4.63226267455789      -2.93550496205448      -2.39027678711562
H         5.79990334253484      -1.85357615157390      -1.59324614010207
H        -4.61709467273496      -3.79733832884496       0.41949303444998
H        -3.32053403739827      -3.85425187772394       1.63975347140629
H        -4.60300219015657      -2.62945667044878       1.76370801760860
P         2.03168851613880      -0.65601449491296       4.19329245450274
F         0.85106902677434       0.50600567888111       3.92267566757422
F         3.04028059172365       0.19402443820724       3.13681516104080
F         2.60961285546457       0.22431828839574       5.44656558220940
F         3.19921355595099      -1.78742571729788       4.38222605419653
F         1.00440596479931      -1.47409042709552       5.17131256906017
F         1.43617858438019      -1.50113359838974       2.86475828438373
