45
C11H24F2N2O4S2 optimized with ForceField in AMS.
N        -0.55732917417691       0.09935384605174      -0.10187805065223
C        -1.56157902853968       0.54596532428791      -1.12196651219309
C        -0.88812478345884      -1.30140121645221       0.32133592089315
C         0.77759821632874       0.09149078774429      -0.79543464798559
C        -0.54857371443956       0.99796202612429       1.10484340168772
C        -3.02267205707139       0.43908141182904      -0.65490145100573
C        -2.34222833032253      -1.48740810395266       0.80290766658692
C        -3.34411750799956      -0.99102104394221      -0.23524275912650
C         1.99708125207305      -0.27321548135758       0.08701965081962
C        -0.13767605325637       2.45906054550650       0.84680478252519
C         3.28323899856169      -0.29693676391913      -0.75057599704536
C         4.49894950849064      -0.66100044097527       0.09842433896620
H        -1.47274992466940      -0.07686939129235      -2.04306889830545
H        -1.36819526210377       1.58668481373864      -1.45559773626507
H        -0.23114450207141      -1.63146598678359       1.15481866469120
H        -0.72122615457465      -2.01277246275895      -0.52002893508894
H         0.97529549852847       1.07923124369751      -1.26843393961867
H         0.75634394486400      -0.63073343267696      -1.64459450526770
H        -1.54401040916057       1.03268378052217       1.58820709519904
H         0.12172929016266       0.58773201518090       1.89087591453967
H        -3.69046233019769       0.72242824831435      -1.49718868284775
H        -3.23453614838026       1.14659938517417       0.17280290104516
H        -2.50829835611892      -0.97044620751937       1.77094905048940
H        -2.52424071652355      -2.56910560518844       0.98352245285650
H        -4.37038862018030      -1.03063700943464       0.18998917779457
H        -3.31541094614104      -1.65588513557298      -1.12681708362798
H         1.85832119738295      -1.27530663906102       0.53504569693095
H         2.12869029446337       0.47043592060280       0.89951756860817
H        -0.14428981189064       3.00618913522999       1.81315852291380
H         0.88830002974066       2.53826701793856       0.43700012603947
H        -0.85591483384491       2.97450683938176       0.17917542175542
H         3.45164879502968       0.70371665547808      -1.20464393411032
H         3.18481874197927      -1.04265010107749      -1.56954253424355
H         4.39097225056764      -1.68617034283869       0.50877968233896
H         4.61944180796736       0.05984709178894       0.93489085705663
H         5.41327830567451      -0.63149284631867      -0.53074317404633
N         1.40304251319863      -3.97405750649240       3.99426985336145
S         2.57200803635949      -4.34553576300144       2.91210575342435
S         1.16837974786808      -4.88409254214564       5.33288818620729
F         2.07764105581127      -5.65382780738699       1.99234996422414
F         2.40984533078809      -4.59606397102004       6.41857373232974
O         2.81201470592506      -3.16981276282311       2.01245913977896
O         3.84441350599627      -4.70237268315712       3.62779775624864
O         1.16756535253126      -6.34209486779706       4.96829957979389
O        -0.14358648597090      -4.51869273094563       5.96590240542404
