38
C10H22BF4N optimized with ForceField in AMS.
N        -1.44270472470896       0.41116037948609      -0.07685649508194
C        -1.75713788947393      -0.86464780403830      -0.78548815667817
C        -2.52889493560468       0.59152675066142       0.92658115666253
C        -0.12809680995723       0.33739474900117       0.63257428594191
C        -3.02339069637546      -1.45303503195407      -0.18018848631168
C        -3.68653142001566      -0.29771386488991       0.52129699018063
C        -1.46882917192321       1.55377593618551      -1.02698396542514
C         1.10618470236834       0.29296260304697      -0.29946589915436
C         2.36757454640345      -0.09047384185047       0.48522876421252
C         3.59946316582639      -0.11563559647424      -0.42611710461723
C         4.86035343693960      -0.45977520551184       0.36198400578598
H        -0.94464380794552      -1.62042985090980      -0.70330478305140
H        -1.93031527241155      -0.70821520560362      -1.87597648851590
H        -2.86873235612564       1.64944091798271       1.01938500350596
H        -2.20987738218658       0.27495325478192       1.94751827513024
H        -0.11292727990365      -0.56457898205167       1.28816683881938
H        -0.01144798523685       1.21847324707565       1.30547485124635
H        -2.75461413366269      -2.23590617584923       0.56411463620239
H        -3.68775768995096      -1.89398474631541      -0.95492721082567
H        -4.35227652243565       0.24378688662319      -0.18610661634149
H        -4.27401378482468      -0.63730428858518       1.40246251809216
H        -0.78495870800572       1.38268883287871      -1.88659530934600
H        -2.48934177937706       1.69863433445652      -1.44857106122410
H        -1.16656287053617       2.49819995012697      -0.52173102277780
H         0.95570335900734      -0.43821074194811      -1.12103926793182
H         1.26351116135824       1.29674096404391      -0.74986959383995
H         2.22848478821954      -1.09769601776264       0.93683721354510
H         2.52771455751657       0.64575459491743       1.30418949179946
H         3.73397829489836       0.87847084616767      -0.90431947367551
H         3.45749514110623      -0.87341066549980      -1.22736394563573
H         5.02903542327728       0.28741923797419       1.16681139884994
H         5.73803268184724      -0.45245686562381      -0.31807304184749
H         4.76886150696684      -1.47102739357751       0.81316201810306
B         4.32873383166731       4.49935487601088       0.84452365385157
F         4.62222594286240       4.21280303276430       2.20424470390298
F         4.32965474457430       3.29314741231874       0.09613106242318
F         5.31326913716024       5.38031746475957       0.32290105673352
F         3.05019858806221       5.11132659988206       0.75456894059251
