43
C13H28ClN optimized with ForceField in AMS.
N        -1.54426657085145       0.12321270282727      -0.07969665741035
C        -2.54964954412020       0.51269836404733      -1.12221931393620
C        -1.81428957777233      -1.28894326799949       0.34479023758969
C        -0.19832213108291       0.17899987823461      -0.74764456518180
C        -1.60519021091572       1.02765924532498       1.12138607777590
C        -4.01360783767898       0.33296252754360      -0.68537778978919
C        -3.26334013055954      -1.53145112794365       0.81682351851048
C        -4.26865934371062      -1.10578334906653      -0.24836082021936
C         1.02252838024924      -0.13675013818125       0.15299255250427
C        -1.23693673669021       2.50069770822356       0.86952428482017
C         2.32587853398332      -0.00179374327174      -0.64778478944865
C         3.55074852545596      -0.33991356293713       0.21144026840604
C         4.84694856800907      -0.17109652977784      -0.59113086825415
C         6.07017292733012      -0.53007181641701       0.24793600140982
H        -2.41082024110904      -0.10890421998690      -2.03822166378822
H        -2.40338565491356       1.56016187965926      -1.45779119415202
H        -1.14595819475480      -1.58859164075920       1.18036028417979
H        -1.61315217754932      -1.99349729550223      -0.49529233739380
H        -0.04032211464296       1.17801149386653      -1.21237935739349
H        -0.16964591617651      -0.53947252099686      -1.59988180168840
H        -2.61642583806760       1.03375851496038       1.57102772491148
H        -0.94921678174869       0.64401195264308       1.93259462083544
H        -4.67611309672650       0.56668828028643      -1.54673545814792
H        -4.28180839566933       1.04126140081863       0.12501627938135
H        -3.46676102029437      -1.00030582606966       1.76962460601669
H        -3.40147997617303      -2.61309415672140       1.02508605627686
H        -5.29976435981751      -1.19345903555087       0.15651261126533
H        -4.18547017320265      -1.78233954625520      -1.12761156519408
H         1.07454211323888       0.56576849980574       1.00889736714459
H         0.95600922300356      -1.17370369047812       0.54182960120887
H        -0.19158452798169       2.61369465865866       0.52099983330778
H        -1.93278599078584       2.98129276136592       0.15422674812053
H        -1.32237651441464       3.05621366475950       1.82715446299486
H         2.41842868166044       1.04192116174872      -1.02185518501742
H         2.29404022530195      -0.68748656188001      -1.52314804692428
H         3.47097434591832      -1.39106058901340       0.56636351657690
H         3.57771291408025       0.33219262802251       1.09739592822746
H         4.82245462100926      -0.82808385954940      -1.48778862165396
H         4.94233103450608       0.88326667035044      -0.93111658131261
H         6.01682568852387      -1.59058235002296       0.57417459178973
H         6.99015292381055      -0.39191929223043      -0.35856110886119
H         6.13252172406153       0.12680636677433       1.14154466414372
Cl       -2.24307589003241      -5.17990845521019       0.14955975516934
