29
C9H17ClN2 optimized with ForceField in AMS.
N        -0.04922623561876      -1.33280038244828       0.34278991284199
N        -2.06468547943120      -0.39918167970786       0.23184993018997
C         1.30512028244922      -1.64489824730995       0.79691644513350
C         2.35121042516617      -0.87805190071236      -0.02199838351805
C         2.19295295142008       0.64131262160451       0.12853459133845
C        -0.95539571153494      -0.56404252809297       0.97870821518556
C        -0.60660979186449      -1.67108020517243      -0.83788331858189
C        -1.85612519221357      -1.09043005586957      -0.90760510952010
C        -3.21722994990764       0.43981663660633       0.55176487356570
C         3.29176565506570       1.38964848490603      -0.61810358306612
C        -3.16450593127290       1.73801886548668      -0.24552731477424
H         1.41830343984900      -1.38456893039182       1.87233558373350
H         1.48408634137793      -2.73704776981022       0.69665563228054
H         2.26706068781671      -1.16063114919849      -1.09405456265216
H         3.35976705752213      -1.17862868937199       0.33370488205714
H         1.20984626764652       0.96051088203154      -0.27991190081483
H         2.23479945532180       0.91934173256745       1.20412273176713
H        -0.79066802244248      -0.09350064474076       1.94091690379041
H        -0.13071855810314      -2.27119018354492      -1.60302520963413
H        -4.15577832287607      -0.10837950143862       0.32075360812324
H        -3.22014335595982       0.68468118021438       1.63637047198609
H        -2.54817756346646      -1.14829879145027      -1.73811068034401
H         3.26515903405769       1.13552993598136      -1.69905582371863
H         4.28792205177952       1.12831799085291      -0.20251831611419
H         3.13674980887457       2.48356250990854      -0.50704172807931
H        -2.23360651450427       2.29392609878826      -0.00368663174299
H        -4.03799078404970       2.37256974232330       0.01355754508182
H        -3.18687797981618       1.52382083437382      -1.33474039291144
Cl        6.33008938691457      -1.39167706258459       0.67150989589705
