53
C15H32BF4N optimized with ADF in AMS.
N        -1.04074590977063       0.80323592910594      -0.28118224579674
C        -1.49116829229692       1.90435403508471       0.67400028906387
C        -2.05106702546776       0.70695900540498      -1.41817765681812
C         0.28796090148995       1.19751481777735      -0.91491503693010
C        -0.91509223500613      -0.49442253759826       0.48040749396778
C        -2.91640212820570       1.71288281637198       1.17371377499959
C        -3.46960731955453       0.46838273497319      -0.93080262672712
C        -3.90842554624995       1.58223926416631       0.01925735623823
C         1.46615023553899       1.31091683800150       0.03793995129195
C        -0.43705486668482      -1.68360051376959      -0.33359804164164
C         2.59211597686823       2.09559672496555      -0.64514235227623
C        -0.36413425793334      -2.93332121800383       0.54412791588544
C         3.82210216063104       2.26398284913339       0.24406030378589
C         0.12232041350370      -4.16140955628946      -0.22270236177086
C         4.92195319805103       3.07753531329921      -0.43551995346312
C         0.18248120692479      -5.40726074722680       0.65592347324934
H        -1.39348812660559       2.84649831738335       0.11278952013252
H        -0.77827056207121       1.90395637169044       1.50937444279396
H        -1.69738302577614      -0.09041685672873      -2.08570248594067
H        -1.97722045165888       1.66620747200702      -1.95516725086805
H         0.09909456552884       2.16049580959604      -1.40848087218506
H         0.48213260539538       0.45223650353583      -1.70034009734258
H        -1.89828464078707      -0.70739546723354       0.91833526645020
H        -0.22041078555369      -0.29154102972865       1.30980091049186
H        -3.15198984486275       2.60357013024311       1.77985096399732
H        -2.98897488376534       0.84758994040521       1.85681649250458
H        -3.57329389591132      -0.52510598990333      -0.45724326769543
H        -4.11236977006071       0.45329787340120      -1.82649271510041
H        -3.92853424692377       2.53286013691739      -0.53891865753863
H        -4.92122931966562       1.38623343118803       0.40520892808732
H         1.18025788653384       1.86104715163964       0.94871492439342
H         1.83449109233875       0.31744801222074       0.35265734309791
H        -1.12127163427634      -1.87896595908023      -1.17570157864264
H         0.55950822273770      -1.48642144141726      -0.76091632901090
H         2.19605638755501       3.08709035841853      -0.92698390971186
H         2.88216645645540       1.59198554239999      -1.58608965106045
H         0.31160475774798      -2.74583100054252       1.39946891153893
H        -1.36190818119465      -3.14260076651752       0.97292016087649
H         4.21471932264327       1.27030535398040       0.52962868148136
H         3.52175639036099       2.76364517389659       1.18352176435602
H         1.12147513023903      -3.95259088117492      -0.64616271439771
H        -0.54839630754985      -4.34151249235574      -1.08252678197784
H         5.80032160387441       3.19095724172635       0.21807570308805
H         5.25341695268175       2.59176160509523      -1.36710846925575
H         4.55901376382883       4.08444797981030      -0.69536668180744
H         0.53360808044585      -6.28215438577204       0.08909909089005
H         0.86818808429472      -5.25657083417096       1.50509689760555
H        -0.81150760959483      -5.64635087823018       1.06649639530227
B        -1.17940155235263       4.31802241183777      -2.17871889011899
F        -2.45180489179264       4.00710649097270      -1.58345632061574
F        -1.21127495279064       5.54182630417468      -2.83728288421399
F        -0.84758021030897       3.24360568857052      -3.07375155735870
F        -0.19921889609705       4.31732133774839      -1.12100505890316
