45
C11H24F2N2O4S2 optimized with DFTB in AMS.
N         0.27896639814057       0.42649378840277      -0.41822057735499
C        -0.47694902069839       1.27484217277229      -1.40465460417247
C         0.18231641357140      -1.01449840456397      -0.84087735820058
C         1.71945008602964       0.86883155965030      -0.49817736279610
C        -0.25788884962679       0.56675811045689       0.97677966732939
C        -1.92591897497567       0.84231496092864      -1.58591321954924
C        -1.25197647317223      -1.49416171077423      -1.02214614389405
C        -1.99912647927611      -0.61848692665034      -2.02471484636336
C         2.69861562143449       0.08551375691550       0.36998559102535
C        -0.09844996714073       1.94742295524955       1.59653519996648
C         4.10089627921510       0.68450382667776       0.18787188026163
C         5.15318878547346      -0.16871553938491       0.89068807549494
H         0.05011511071953       1.19263156448641      -2.35743118477019
H        -0.41885301352587       2.31063296267935      -1.06594548448931
H         0.68901789768620      -1.61738160251876      -0.08597772952418
H         0.71871377009350      -1.10681345924899      -1.78561657214363
H         1.74340534024983       1.93081759644457      -0.24417366964587
H         2.01778534827169       0.76176452002730      -1.54467265864918
H        -1.31650482846679       0.30474144595835       0.94600029510281
H         0.25760108330283      -0.17501901364420       1.59115544809119
H        -2.35774269376640       1.48381592374632      -2.35840466907459
H        -2.49972594402735       0.99651735330578      -0.66699958542267
H        -1.78267275150508      -1.51630608225144      -0.06530979890012
H        -1.19803281191278      -2.51985558557169      -1.39574911932118
H        -3.04249694471540      -0.93527848459472      -2.09010013995516
H        -1.54319724609401      -0.72522932019221      -3.01251959506261
H         2.72501949674196      -0.96147867054872       0.05944016004013
H         2.41623870380318       0.12513459891154       1.42606101308523
H        -0.60445729971578       1.93321512779146       2.56189612517750
H         0.94689853985129       2.19766732991628       1.76616067974280
H        -0.55535751865307       2.72319003216461       0.98502969711283
H         4.11638576840434       1.70492230301120       0.58556414320831
H         4.33181332974671       0.73182609177768      -0.88036927147356
H         5.17868138544920      -1.16601863944592       0.45167617185966
H         4.93246616472474      -0.25687705833339       1.95564203845076
H         6.13545613388775       0.28826986948555       0.77350048096647
N         3.01275327830750      -0.10214775535530      -3.18633701993426
S         1.94453475633591       0.30992550618327      -4.27991046970760
S         3.31624517574939      -1.64973646942669      -2.95172840987798
F         0.55853903360824      -0.47962675322572      -3.82840485191174
F         4.03029230473437      -2.15167414132258      -4.29607428812048
O         1.60538615826350       1.67807987009281      -4.02900851745082
O         2.16690888769194      -0.12887648056145      -5.61297509733715
O         2.15862978720841      -2.48238151068430      -2.81424556583668
O         4.31851955327588      -1.72339170523663      -1.93713885657577
