50
C14H28F3NO3S optimized with ForceField in AMS.
N        -0.69260239052423       0.53854720908856      -0.20257740341980
C        -1.66168380309834       0.28104822422333      -1.31723215342761
C        -1.25431106310781       1.61408747677559       0.67838758228465
C         0.56739582832063       1.04819694649753      -0.84484858710807
C        -0.43693885649424      -0.69627960998518       0.61780482644688
C        -3.07808329709321      -0.08464334697389      -0.84465574552137
C        -2.67296686177688       1.31129754553871       1.20561734913271
C        -3.63610806720264       1.00964487263973       0.06033605915793
C         1.76631316363950       1.28780531361296       0.10572371724607
C         0.22911859081044      -1.87419784444433      -0.13144794324518
C         2.96703789263773       1.82939162780889      -0.68124294750840
C         0.43157831532213      -3.06018908278757       0.81785111956766
C         4.17785398219057       2.04071325965968       0.22215178513695
C         1.09323575939331      -4.23512268508399       0.10569882243624
H        -1.29611789318494      -0.51048639618616      -2.00369531874191
H        -1.75988244821838       1.19183896875249      -1.95406935245190
H        -1.30386241730246       2.58210580657185       0.12797510231278
H        -0.60609272967870       1.78383736585426       1.56473474943335
H         0.36138590324160       2.01042604738055      -1.36918965916679
H         0.89955044974685       0.35251859650212      -1.64790616629863
H        -1.37748339990834      -1.08684714425928       1.05108758283340
H         0.18613959568412      -0.44424558131804       1.50401431489371
H        -3.08996290126110      -1.06590231252315      -0.32730782667306
H        -3.73786168031176      -0.18466310221268      -1.73349514953204
H        -3.04709665755640       2.19667724516517       1.76322099792818
H        -2.66012635281178       0.46816460840308       1.92725929202319
H        -3.80033198086352       1.93428412682812      -0.53591025859581
H        -4.61642268282821       0.68693136442844       0.47204757947012
H         2.07654719723136       0.34071740163446       0.59273415563121
H         1.50110337753316       2.02409932412692       0.89154162897522
H         1.21869854384381      -1.57881217723302      -0.53497155548551
H        -0.41397726285574      -2.21417631542999      -0.96797625168374
H         2.69829334460611       2.79921293472474      -1.15393762631856
H         3.24321200810695       1.11177199194254      -1.48469208049395
H        -0.55448878835317      -3.38997247134340       1.20854107541685
H         1.06852735972818      -2.75319749979640       1.67623502247859
H         4.48713998875349       1.07900506219012       0.68413114970027
H         3.93983358794824       2.77430075974297       1.02132805674850
H         5.02420976751255       2.43281865696646      -0.38041874412008
H         2.09166598747069      -3.93884723226617      -0.28037686376274
H         0.45911773945194      -4.57965985965670      -0.73878920994269
H         1.22201067678887      -5.07559398341557       0.81966856582892
S        -2.20288450468000      -2.38622608513050       4.52644367437076
O        -3.36582880370467      -2.16733531848838       3.54778321287386
O        -2.73501333492586      -1.78857376337277       5.83722251378846
O        -1.16275253835804      -1.35271216790082       4.07048236528811
C        -1.60142935184243      -4.09453586812058       4.65096664631897
F        -1.14626893345953      -4.51779896146749       3.41863792508876
F        -2.63086567263183      -4.91720800800675       5.06505946663416
F        -0.56846348362805      -4.15430817415646       5.56610284825139
