35
C9H20BF4N optimized with DFTB in AMS.
N         0.12029092698530       0.21517239336856      -0.10613895136602
C        -0.91127159699843       1.07647799674137      -0.78353547366378
C        -0.41399863813499      -1.18030461234701       0.01451605247027
C        -2.26763402519808       1.04609088313496      -0.09701138357819
C        -1.76624543344048      -1.25692108098168       0.71621342097884
C         0.47307817357122       0.74352140222433       1.25936815398826
C         1.32858821475989       0.19393709351591      -1.01030203853364
C        -2.79943762483648      -0.38092306598899       0.01049256516133
C         1.14267234891895       2.10957291395912       1.27038242457868
C         2.48850471547698      -0.65372346598678      -0.51631814475590
H        -0.99862666725123       0.71202682611090      -1.80946427402090
H        -0.52461221087378       2.09516690236712      -0.81967732769264
H         0.32105016708934      -1.77589309618188       0.55937440083110
H        -0.50349340913603      -1.57203190002195      -1.00268088385533
H        -2.94692756514291       1.65166925560300      -0.70203431301955
H        -2.21352148085590       1.50321543826309       0.89490573537892
H        -1.67233265387804      -0.95995095403215       1.76431699404217
H        -2.08439104230649      -2.30286623747271       0.69587510165918
H        -0.45311391724025       0.78797393528069       1.83513441264444
H         1.12433340368296      -0.00004017852222       1.72636204582852
H         0.98376085974088      -0.16966981840611      -1.98055945221768
H         1.65223680270509       1.22773850209483      -1.13696973564065
H        -3.73689471002663      -0.39239228690961       0.57144858830054
H        -2.99489050622960      -0.77892611621655      -0.99042715805810
H         1.29730024939585       2.38562410422440       2.31366971908793
H         2.10799373709525       2.09675090847463       0.76985023395044
H         0.52444183543928       2.87031707653764       0.79912572223347
H         3.28953227231161      -0.55338567115064      -1.24869629828814
H         2.86714463222779      -0.30720729685879       0.44382631489953
H         2.23167178733562      -1.70977546752005      -0.43778299690105
B         1.15205262320568       3.47357679363262      -2.05872715096485
F         0.17619239498684       3.86981780712456      -1.10731199650790
F         1.45059309423840       4.47728464870620      -2.92963356212222
F         0.63168398444414       2.33147543846984      -2.73137938530851
F         2.28931449433822       3.04119360416334      -1.33364865763860
