34
C10H18F3NO2 optimized with ADF in AMS.
N         0.78562093035154       0.14527610046664       0.04757762777021
C        -0.05042918131374       0.97463600076737      -0.92389091779754
C         0.53279677826621      -1.33419004765108      -0.20660875573581
C        -1.52773027468353       0.62748897499853      -0.88307609852753
C        -0.94435964736415      -1.69587934238951      -0.17529676550889
C         2.24517232235155       0.50098439372971      -0.23716473393742
C        -1.73162568215862      -0.85705752585328      -1.18097548215345
C         0.45525285890885       0.49103341655258       1.45949460663416
C         3.27115737188256      -0.39750199278962       0.41938363150805
H         0.37921677637497       0.75909622618237      -1.92247421624041
H         0.14505521325436       2.02755193747433      -0.66616657682284
H         1.10801384384525      -1.88813887039104       0.54714751216667
H         0.91861315238238      -1.55306874550803      -1.21384265522193
H        -2.01819991902264       1.25060132260296      -1.64958990444781
H        -1.98774951493846       0.90433797362787       0.08325895441198
H        -1.36752903688731      -1.59970184589602       0.84121730714868
H        -1.00083319416348      -2.76441526086498      -0.44186943883885
H         2.34668196157815       0.46717552651275      -1.33709657977891
H         2.35040123583415       1.54601497383990       0.09512844149470
H        -2.80150665289588      -1.11675282364585      -1.14834193872900
H        -1.34648120496952      -1.07952984989278      -2.19263380427957
H        -0.59249429834246       0.25316639311724       1.66512940172128
H         1.10075031574789      -0.09018214685285       2.12860496501598
H         0.62917646508463       1.56429530124472       1.60781486657400
H         4.26104904123100       0.02327524982899       0.18562078715608
H         3.18497681269692      -0.44638417881816       1.51517735700377
H         3.25425270558688      -1.41173724834474      -0.00219219232932
C         1.79985295444660      -1.09806495033499      -3.32124943035160
O         1.90795349415291       0.15315371361978      -3.23302702917588
O         0.78907877831581      -1.83501794234828      -3.27456448718694
C         3.15275626113669      -1.89110493816577      -3.40147768481116
F         3.21535438208160      -2.82032525226968      -2.37827296695446
F         4.26418756783952      -1.10696738386103      -3.25901173355515
F         3.29178076808938      -2.57862288118806      -4.57045806252109
