29
C9H14BF4N optimized with ADF in AMS.
N         1.96211189156183       0.09824466887589      -0.92833469449142
C        -0.41455180206673      -0.07750463238013      -0.23678695524954
C         1.03791072466908      -0.04246295357671       0.22083542489520
C        -1.36583240303421      -0.22590593488156       0.95126350607395
C        -2.83169412179313      -0.26420039542257       0.52682447120825
C         2.38354155422158       1.32438442861743      -1.29724489312953
C         2.41613489507538      -1.00869906657214      -1.54930468614060
C         3.25760956087802       1.47772426152462      -2.35490532718601
C         3.28952261677582      -0.90756395071859      -2.61369389969134
C         3.72012020764872       0.34964267835341      -3.02234496441895
H        -0.56264092044670      -0.91780365776677      -0.94060864319930
H        -0.65104743352821       0.84932961893308      -0.79260894842171
H         1.34834266500037      -0.95258016616449       0.75246930685486
H         1.25600101342571       0.79559547361648       0.89656259385814
H        -1.11203429423389      -1.14829884371021       1.50423043232632
H        -1.20168986399773       0.61133341103412       1.65339132602068
H        -3.49367018346031      -0.37452049927692       1.39828859773273
H        -3.11735713382264       0.66177390227698       0.00255091652965
H        -3.02629682229569      -1.10938495979078      -0.15283941880706
H         2.02274442681930       2.15536003008768      -0.69757710799404
H         2.08045613562392      -1.95835270873398      -1.14160828950690
H         3.60279207223380       2.47738802652103      -2.61627204346651
H         3.66062726908008      -1.81801945725930      -3.08266801289135
H         4.44104316604480       0.44766057683303      -3.83527814253808
B         4.50122565265718      -0.07087542187244       0.93439479144420
F         5.11606555465507       0.09246305870844      -0.33762665657397
F         3.67920934128381      -1.26165373664361       0.88777549625903
F         3.62707516200118       1.05774592121664       1.16192789904397
F         5.44054085152359      -0.17066214622861       1.95951423545931
