47
C13H26F3NO3S optimized with ADF in AMS.
N         0.86185731513052       0.25332028897012      -0.54162360720817
C         1.56388995963322       0.65731736538624      -1.84405904167297
C         2.00844342469366      -0.24649005650864       0.32218120145214
C         0.20404541962037       1.43686908115814       0.13185246541904
C        -0.13165753771772      -0.85128178124422      -0.84497448155927
C         2.86320100630743      -0.16282808337477      -1.90953798285359
C         2.88793625845800      -1.02734803717256      -0.63507594405746
C        -0.82562629428874       2.15643686693438      -0.71511271782298
C        -0.96387251357138      -1.33923571906829       0.33029728935497
C        -1.26652136259972       3.43128324717949       0.00918432168119
C        -1.80873726239673      -2.55605971925210      -0.06389182612598
C        -2.24671847360239       4.24814236218290      -0.82426568601621
C        -2.68927692505811      -3.03677987166080       1.08697679081811
H         1.77636543846982       1.73569881445607      -1.77775213544808
H         0.86819183816902       0.46741885431487      -2.67114509404781
H         1.60930661832937      -0.80301171138650       1.17860693616354
H         2.53756322368693       0.66106440830509       0.65545390312659
H        -0.22373490209981       1.06576561351222       1.07533228991232
H         1.01848891211245       2.12878837610695       0.38476785832836
H        -0.78785268059307      -0.45978666466970      -1.63557689533417
H         0.45220183194686      -1.67628739767106      -1.27895847438926
H         2.92680824657449      -0.76970365127245      -2.82332285719097
H         3.70564456305498       0.54354356177522      -1.88891090843757
H         3.90255279724203      -1.13211082715269      -0.22582182903868
H         2.49705139168769      -2.04180553137560      -0.81424169509547
H        -0.37026844463477       2.45072268143898      -1.67522715485428
H        -1.70317998601755       1.51918865495592      -0.92983189141957
H        -0.32252819402452      -1.61795573408265       1.18316286977148
H        -1.63705490488035      -0.53824708217177       0.67814929024619
H        -0.36650973094853       4.03130715553414       0.22847524928451
H        -1.72313392998997       3.16587263763956       0.98030865115244
H        -2.44167135611182      -2.30199984122996      -0.93308063279343
H        -1.14430569089186      -3.37624373990696      -0.39005916227022
H        -3.15624892603129       3.67072631245988      -1.05819733988755
H        -1.78045748264957       4.55397536213037      -1.77405967024533
H        -2.55001355620561       5.16055079718325      -0.29015343979629
H        -3.38787945536995      -2.24763262580330       1.40712867963517
H        -2.07992905590002      -3.32046506852685       1.95947050942157
H        -3.28365985837263      -3.91405460805417       0.79155799860589
S         2.92188838079745       3.75439870403228      -0.24296849863562
O         3.67985345274361       2.48672117022760      -0.09849160585879
O         2.23871810122583       4.20923587697227       0.97800710165509
O         2.10488922984274       3.81706910954205      -1.47707506576936
C         4.26180936882113       5.03785906143976      -0.53402288894177
F         4.93667776698641       4.78423236813709      -1.68876131096194
F         5.16302229943619       5.04211808356850       0.48242562332978
F         3.72495719198593       6.28232693334173      -0.62666246262559
