26
C8H15ClN2 optimized with ADF in AMS.
H        -0.37572454482837       0.02674054274544      -4.75823324992019
H        -0.95720865127969      -1.37297245582834      -3.77297557051584
H         0.64473341454977      -1.43868868913260      -4.62943020607595
C        -0.07191338708483      -0.79968807823569      -4.10201709491990
H         2.54571845770526      -0.30397766733729      -0.29421504797377
H         2.39284813643724      -1.41746352108966      -2.83310530407258
H        -0.99168990892337       1.06336214617015      -2.19656078411510
N         0.56093175157466      -0.27411758100154      -2.90250912581309
C        -0.11703216232930       0.46297162478427      -1.99056834871580
N         0.67840339586267       0.60069342159628      -0.90683940111627
C         1.79668245336379      -0.20402039318755      -1.06831444658435
C         1.72045526523614      -0.74960627530196      -2.31153999319380
C         0.25712419936941       1.22325792631454       0.34720037398283
H         1.11785791151685       1.77874381681926       0.75515479079407
H        -0.52535319387748       1.95519169591354       0.09346488456235
C        -0.28215230031849       0.18882355660790       1.32916291476991
H         0.52572721160143      -0.51723905943736       1.59344443644759
H        -1.06378615877696      -0.39055148601763       0.80308203353932
C        -0.83878780151108       0.83609501596050       2.59411391343909
H        -0.04891250294805       1.42120868086652       3.10211807878999
H        -1.63213773420293       1.55387456726972       2.31526528328514
C        -1.41240511463087      -0.20505101721431       3.55413724620395
H        -0.63799597342317      -0.93013342040861       3.85237829946723
H        -2.22689593314862      -0.76559592819089       3.06940233427497
H        -1.81102704932382       0.26118641621289       4.46870213128995
Cl       -2.09181796911020      -1.11130328897759      -1.43338779052977
