46
C14H29NO2 optimized with ForceField in AMS.
N        -0.70929873308556       0.29776078258379      -0.15957175254371
C        -1.25812676721827      -0.47909774970017      -1.31900105506335
C        -1.84897114221939       0.71194981562783       0.72395163505800
C         0.27730478384959      -0.50969240536142       0.64134657392626
C        -0.07633492233111       1.53497070490708      -0.73566324301555
C        -2.11840778206707      -1.68848422405516      -0.91536839297738
C        -2.74994986163590      -0.45522355573253       1.17665224793534
C        -3.27011558366812      -1.24929283290113      -0.01710704077330
C         1.56419396454242      -0.93514291924832      -0.10675647409028
C         0.63791421526465       2.46148606648213       0.27947259780897
C         2.50460982982752      -1.70546717287909       0.83000924285311
C         1.19884976983908       3.69963359197503      -0.41654687018827
C         3.78075850791393      -2.13071108520789       0.10899885362280
H        -0.45132262813129      -0.82451457877975      -1.99823198245748
H        -1.90406881123945       0.17844066626728      -1.94731975650946
H        -2.49936991703589       1.45093414391404       0.20132581198623
H        -1.47908746754197       1.20855780946182       1.64653589321727
H        -0.18932544217853      -1.43769135120709       1.02499295937131
H         0.57188501559146       0.04721308241273       1.55787476476005
H        -0.84928641061950       2.14698273033389      -1.25654857381564
H         0.65151150512368       1.26448584604082      -1.53303196291474
H        -1.50814371351323      -2.46781191995879      -0.41453964901604
H        -2.54027391473634      -2.15205775646791      -1.83335583018645
H        -3.61770600241410      -0.04381059170959       1.73640827031795
H        -2.21052901271644      -1.12663707258423       1.87662160680755
H        -3.97816847992671      -0.61979959253518      -0.60021589082209
H        -3.82191889301263      -2.14389899766609       0.34364583507772
H         2.11160963728215      -0.04952367608753      -0.48767513607071
H         1.31105379477415      -1.59802616099393      -0.95805828310633
H        -0.06521226509874       2.80721808352396       1.06341421212416
H         1.48683695400381       1.93925616056341       0.76540426908306
H         1.99170714899528      -2.61402475449918       1.21501028191857
H         2.78025951105568      -1.06356663508047       1.69503262017170
H         1.71287181343971       4.34411356032593       0.32779935094209
H         1.93241317646615       3.40584343591593      -1.19747824652126
H         0.37903051369866       4.28539852679213      -0.88463547117026
H         4.30723817200901      -1.24324360707667      -0.30278300458311
H         3.54081838639028      -2.83279253991750      -0.71710811988726
H         4.45701871401998      -2.64487352123828       0.82391923083555
C         2.85938551444217      -1.93979901261628      -5.58719733006027
C         3.42952900558630      -2.10528487256973      -4.21424402111658
O         4.63894290432604      -2.13279385006198      -4.05478840320228
O         2.68881219367126      -2.21274432805343      -3.25092366770358
H         3.18865344054446      -0.96865776891164      -6.01256466553523
H         3.21355074878263      -2.76447460038452      -6.24081193051988
H         1.74880166925018      -1.95991273414230      -5.55449590786719
