49
C15H31NO2 optimized with DFTB in AMS.
N        -0.23899694946447       0.65663605169204      -0.34754121066640
C        -1.28619958712483       0.47013508735413      -1.40046360444766
C        -0.87823948171674       1.25934038833706       0.86598934640684
C         0.77797206445111       1.62913779653854      -0.91423920192665
C         0.44039628453907      -0.63933905508863       0.02914888277029
C        -2.44505344177312      -0.39728831452088      -0.92733846717965
C        -2.08693344761770       0.48053829241282       1.37805113106822
C        -3.12119487358117       0.25324053626388       0.27768050889030
C         1.70065412158188       2.28631689027098       0.10689416943118
C         0.79620657575640      -1.55706785010598      -1.13687985625577
C         2.74199861760594       3.12232382174120      -0.64898843082136
C         1.58694956525809      -2.75312218491941      -0.58836274389062
C         3.78568051602384       3.68352435051509       0.31313423900317
C         2.10751426636603      -3.62544351884206      -1.72739604130695
H        -0.80088529723582       0.04445814767951      -2.27941236261548
H        -1.66142916491980       1.46470121172160      -1.65882297245924
H        -1.17926678094462       2.27563036307118       0.59612634964218
H        -0.11659849436987       1.30703041339064       1.64560367860158
H         0.21609797117364       2.39749906596398      -1.45307423140651
H         1.39080553062492       1.06133577518392      -1.62262496484244
H        -0.21129266309508      -1.16677481447614       0.72796514883545
H         1.36747136232456      -0.36270970269354       0.54281933186907
H        -2.10022068730232      -1.40128422330665      -0.66973026927342
H        -3.15542657871011      -0.48729888576497      -1.75314545758264
H        -2.52840139820347       1.06501533954327       2.18981544075803
H        -1.77537945106551      -0.47978864022757       1.79679148077371
H        -3.56282446769693       1.20984351326425      -0.02051389463044
H        -3.92138200842177      -0.39012008399703       0.65089195713939
H         2.22053526781875       1.52172368899164       0.68976555781405
H         1.14337545088393       2.93571095943728       0.78986716029352
H         1.42231519253322      -1.02205014322797      -1.85510272427008
H        -0.09905539589444      -1.92296339251132      -1.64934233636643
H         2.24300164179433       3.94303118655437      -1.17734844858244
H         3.23512990285713       2.48878340728687      -1.39190202255066
H         0.94469593003940      -3.34691548396438       0.07263380208577
H         2.43097108816000      -2.38179523836230      -0.00044346431646
H         4.30624350696993       2.87016359867817       0.81918608206130
H         3.31627745147966       4.32062543466187       1.06522738806459
H         4.51684529136863       4.27609133058321      -0.23706195679668
H         2.77174444171552      -3.04716234692442      -2.37013656979354
H         1.28239612235127      -4.00804572863792      -2.33135552621549
H         2.66416347420765      -4.47130246912130      -1.32332600401086
C         5.37823298364873      -0.47728009327974      -0.99125890803391
C         3.87272123667830      -0.15655862050056      -0.82143841809594
O         3.25251598322613       0.19849567136089      -1.84733944419313
O         3.40855323854530      -0.29246537165839       0.33243590452665
H         5.73279408264436      -0.13556169076823      -1.96169174380457
H         5.94463288677918       0.00012516356981      -0.19344204311347
H         5.51163802123089      -1.55598922726888      -0.91506360168640
