23
C7H8F3NO3S optimized with ForceField in AMS.
N        -0.68343762734953      -0.05227419492636      -0.09823281460892
C         0.00263803296263       1.11270401989362      -0.30060991843509
C        -0.01271933861315      -1.22704932918662       0.10726933234628
C        -2.14782092718148      -0.02427318835876      -0.10130906846549
C         1.39966364755121       1.12299516564933      -0.29631508448114
C         1.38430111319593      -1.25231249970849       0.11628797377104
C         2.09199567383504      -0.06843590459460      -0.08617963730596
H        -0.53003329593678       2.04273302792234      -0.46214960140447
H        -0.55270562162458      -2.15280564806393       0.26666257580170
H        -2.57907856032943      -1.03558055556303       0.06267548926309
H        -2.51171602355018       0.64447534391596       0.70777121471670
H        -2.51434826332702       0.35506875647493      -1.07905980581662
H         1.93955682126059       2.04808043110875      -0.45174352840972
H         1.91269982877942      -2.18272341976545       0.27976538682766
H         3.17430452758373      -0.07419138943409      -0.07936907039320
S         1.99926858065697       3.56628967320892       4.09655823799850
O         2.86732109005127       4.20553654910797       3.00272960960322
O         1.14601795015813       4.74163512249861       4.59577849635721
O         2.99334740684558       3.34421527166809       5.24598090421923
C         1.06595061339190       2.09625793433133       3.58395991132588
F         1.94109182824642       1.12834343364407       3.13002093184950
F         0.19055578109730       2.43719801830113       2.57162740477967
F         0.35339616189604       1.60357485647629       4.66004342726095
