45
C11H24F2N2O4S2 optimized with ADF in AMS.
N         0.57947368833076       0.18550725096895       0.27681802361354
C         0.05742458176011       1.34781781205672      -0.54752184680044
C        -0.38703724024471      -0.97462026574648       0.17753622810098
C         1.91950775739773      -0.22354624740700      -0.34081236628485
C         0.76228909464607       0.57255080110471       1.75063534221407
C        -1.35204610258747       1.75483559584823      -0.15972230091118
C        -1.82896957654480      -0.60574522046656       0.50018821365174
C        -2.31565610844122       0.58203473717037      -0.32703800377230
C         2.54187597057624      -1.51412311089900       0.16168711948172
C         1.24235713745914       1.98597001511997       2.00649703124105
C         3.92082368069560      -1.69417949596415      -0.49012578312504
C         4.64722828200739      -2.92300338300893       0.04888079348976
H         0.07322673684967       0.99619981744958      -1.59180533998246
H         0.79630908080015       2.15500912592123      -0.46209501903316
H        -0.01132242826448      -1.75858502754512       0.84957199972541
H        -0.30551780317367      -1.34058696596577      -0.85910259783241
H         2.58636162850396       0.62826824971868      -0.17000734927412
H         1.73119338817039      -0.28726417985311      -1.42433200716768
H        -0.20671342227831       0.39653857711577       2.23527882033490
H         1.47839836634092      -0.15778147823505       2.14860085893636
H        -1.63831161703456       2.60337457802147      -0.80290371752356
H        -1.38013021154256       2.12744580796976       0.87767138859011
H        -1.94100273561585      -0.38527604736864       1.57528957800821
H        -2.44184353337425      -1.50304332685980       0.30969935249186
H        -3.33663727859378       0.86539527213935      -0.02560549416743
H        -2.36219109980331       0.29685398214687      -1.39426135058885
H         1.91421344782029      -2.38958556652364      -0.07990649103702
H         2.68395401103709      -1.48623527049000       1.25381446245407
H         1.55593947418927       2.04325829316684       3.05978658958622
H         2.11747912891777       2.26373257900146       1.40931622206414
H         0.45187992522891       2.73223353965253       1.84873030412711
H         4.52888723657769      -0.79368034561104      -0.30590652727707
H         3.80042209113456      -1.77459456009936      -1.58563581047470
H         4.07350881749294      -3.84690767386953      -0.13176272236833
H         4.81593018855583      -2.82943356578905       1.13329670688459
H         5.63101873596726      -3.03556545515636      -0.43055544420620
N         5.25551065855918       1.62703345009982       0.01770465629485
S         5.11342812021627       1.72212497991077       1.61659115693334
S         4.43245452886708       2.58421743674634      -0.97364794277649
F         3.92744059977405       0.53435830868181       1.90769863499899
F         5.09644085054723       4.06685437085069      -0.73790818507035
O         6.28411095481839       1.13313871773932       2.22593120025521
O         4.49316771858942       2.92385918190448       2.14465514307449
O         3.02231979944678       2.79238670524313      -0.63250638223705
O         4.77533259092085       2.22183309280973      -2.33201012364206
