43
C11H24F6NP optimized with ForceField in AMS.
N        -0.83517060174259      -0.20205902809539       0.02982830650657
C        -1.17555040150377      -1.24592348596296      -0.98615155114925
C        -1.97530246135391      -0.21732281754225       0.99674213691210
C         0.43062194834631      -0.57110170077201       0.74464176150755
C        -2.60145558301216      -1.70311377589921      -0.74353226020669
C        -2.81597115066421      -1.44813516399584       0.72094809256131
C        -0.74428663485949       1.13686703759163      -0.63876487394579
C         1.69790302245390      -0.54610292422624      -0.14394493912794
C        -0.37476078246906       2.30172736410159       0.31135959095270
C         2.90006849039923      -1.14184927402697       0.59855179521074
C        -0.47564386908469       3.64566375557648      -0.40347679642191
C         4.15576353401065      -1.10468875282033      -0.26753111065028
H        -1.06934836686555      -0.88976858985847      -2.03651912445252
H        -0.52897741149617      -2.14957910343442      -0.89613646081396
H        -1.64985812746136      -0.21354791566960       2.06249087973077
H        -2.64614995526972       0.66366878383611       0.87000288299900
H         0.32406324353583      -1.59084712918044       1.18376781937240
H         0.60208617374894       0.10458653882947       1.61187447767828
H        -3.30463234324913      -1.08260184804360      -1.34267038858725
H        -2.74223421249612      -2.77743393644045      -0.99451428297135
H        -2.43510602155507      -2.30776122918727       1.31578545348131
H        -3.89042263118672      -1.27744525986278       0.95223754015989
H        -0.00097012772694       1.11095655131427      -1.46648264355368
H        -1.71842227430130       1.37480091535092      -1.12717464504655
H         1.53240245048707      -1.12027830961704      -1.07959652470834
H         1.94615273045347       0.50032570800921      -0.41900479091673
H        -1.04749097375548       2.32287190823663       1.19373690182577
H         0.66775891502534       2.19107611932059       0.67414945321348
H         3.08682744233220      -0.56524584003957       1.53028460920462
H         2.68683882072192      -2.19746106528094       0.87464197428113
H         0.22006702555001       3.67405921594526      -1.26926028204366
H        -1.51375458941984       3.81862247804967      -0.75883724248060
H        -0.20149560143349       4.46099464991891       0.29909951488037
H         5.01198745269218      -1.52356954040599       0.30235192256173
H         4.00853929052034      -1.71267354787682      -1.18533309742782
H         4.39751100854947      -0.05919724398324      -0.55507081569718
P         5.72589384836554       1.75812945485028       2.58002616985880
F         4.39792208139792       1.92796997844663       1.50472417553255
F         6.57138027961834       2.85079109268957       1.56024666905411
F         5.00271467125494       2.96546234547940       3.56389339539569
F         7.02604218493395       1.83651546261508       3.69932041554565
F         4.91484723852744       0.51462640736752       3.44293836112076
F         6.45982200408178       0.46284055909260       1.72465285445423
