42
C12H16F6N2O4S2 optimized with ForceField in AMS.
N         1.74442756287867      -0.03150379092650      -0.52566271062525
C        -0.63139141767286      -0.01204447966442       0.09383276316939
C        -2.07311972249414      -0.02756768748056      -0.42385911431942
C         0.37698159396499      -0.06611688597400      -1.05792939605614
C        -3.06892943287416       0.02451992051230       0.73967115433155
C        -4.50854636009839       0.03260108788301       0.23467666532493
C         2.37235517109448      -1.19994604074580      -0.19038746184896
C         2.35974939612768       1.17207907703676      -0.31420449191032
C         3.64783430079701      -1.18133735596678       0.37997161006735
C         3.63495298440520       1.22651873312045       0.25429851305568
C         4.27885226103317       0.04108902969142       0.60623691714741
H        -0.46792906906058      -0.88713786004169       0.76070748249154
H        -0.46026638086561       0.91591481975721       0.68287502779172
H        -2.24401645158816      -0.95538862019460      -1.01308560128148
H        -2.23493081598025       0.85015595114193      -1.08797736667766
H         0.21896977689819      -0.99278537453963      -1.65412149540246
H         0.21030287515845       0.79278909751487      -1.74611865767356
H        -2.89054495021021       0.94026358022963       1.34238365526747
H        -2.92335387663187      -0.85843697695225       1.39921118765294
H        -4.68669756635657       0.91712875970125      -0.41334886180456
H        -5.20464565977508       0.07933856634821       1.09837363745063
H        -4.71877317029350      -0.89322309380108      -0.34187919658911
H         1.88135795686524      -2.15283076964617      -0.34926230863262
H         1.85868659688327       2.09798622427412      -0.57112985228392
H         4.13781713704326      -2.10716278705698       0.65269373730344
H         4.11478230859600       2.18089313889783       0.42883836091787
H         5.26252449453585       0.06990258330107       1.05754220423275
N        -2.25199781252613       5.66944859695741       1.82053370359875
S        -0.93085486496406       6.29824340431232       1.08206197074966
S        -3.75690103684207       5.74302160458744       1.17459350595127
C        -0.68156392442295       7.96701573070505       1.65202976756018
C        -4.12914199913167       4.18782983320087       0.39361031889847
O         0.27404142213146       5.47845417147639       1.44830230490956
O        -1.10464787401613       6.29729910242532      -0.41169170279583
O        -3.85554076327372       6.85281964377432       0.16464866649438
O        -4.75261368699939       5.97519854766524       2.27572349050878
F         0.44497077376596       8.49839987024854       1.05413406035190
F        -0.51299377321860       7.96490221397119       3.02349993899274
F        -1.77944444903392       8.74061865532368       1.32805061595787
F        -5.38572431687913       4.24194610260797      -0.17784519199855
F        -4.10347520304780       3.18567452814870       1.34246683398256
F        -3.19107861672194       3.91850862057592      -0.58474263236095
