46
C12H26F6NP optimized with DFTB in AMS.
N        -0.59493592903889       0.64663000195617      -0.28377830514298
C        -1.15127921864632      -0.00334194582388      -1.52073981550494
C        -1.74626478434812       1.13293407657576       0.55499330627843
C         0.24857606409134      -0.29133171776895       0.52734656131969
C         0.20548813274061       1.83442336126158      -0.75574006746036
C        -2.11268387676067      -1.14342373608664      -1.21521036535204
C        -2.74820196110192       0.03569759949273       0.89493757737467
C        -3.27863637330288      -0.64466802672719      -0.36484126800375
C         1.49495398474525      -0.82080203528813      -0.17922591440980
C         0.89804167076830       2.63986692930920       0.34012532826897
C         2.23214716475677      -1.78995342936895       0.75393987994820
C         1.45087260796025       3.92479464891022      -0.27775062182664
C         3.48829561494833      -2.34551710916391       0.08660066263887
H        -0.31079345763597      -0.35124413927404      -2.12327634805877
H        -1.67543101719470       0.78098666502795      -2.07036474721640
H        -2.23799186974480       1.92237426972631      -0.01529665987766
H        -1.33408564247099       1.55679852961529       1.47218051405901
H        -0.38247120188244      -1.13239221785290       0.81936700625876
H         0.53610628904514       0.24513267254731       1.43497761500628
H        -0.49349312187214       2.47836586518282      -1.28854495796882
H         0.94037495886233       1.46383424314494      -1.47359980743323
H        -1.59748111686054      -1.97067784585635      -0.71700159491740
H        -2.48656707354919      -1.51428722817883      -2.17302117827441
H        -3.57340724182562       0.51449151089375       1.42862018224255
H        -2.30360347452943      -0.70332446376412       1.56905960119683
H        -3.86874609321922       0.07069442097319      -0.94307162446145
H        -3.92367757117846      -1.48223643580266      -0.08900908368263
H         2.16680301940540      -0.00113377170123      -0.44441740371181
H         1.22129123543839      -1.34680181034111      -1.09725767467536
H         0.19115949724861       2.90592663655937       1.12936026434651
H         1.71487898113478       2.06778601091234       0.79044173424312
H         1.56439412141075      -2.61519592182795       1.02249928625490
H         2.50769535069437      -1.26727595435963       1.67580981268413
H         1.95456646436843       4.51421538649133       0.48753526238348
H         2.16476565694269       3.69391190815085      -1.06889177094537
H         0.63918034342235       4.51714724080283      -0.69992574410801
H         4.17316859965871      -1.53719166836475      -0.17174620345127
H         3.22973860255408      -2.88727749049181      -0.82380394760828
H         3.99679122257378      -3.02897349129255       0.76605662797476
P        -2.95348784383509       3.51625089430351      -2.46714829907564
F        -1.60687763138607       2.69257585688078      -3.04578654127103
F        -2.09658014195127       3.79305405677073      -1.04327885868237
F        -2.37386409535034       4.90318172962341      -3.08370673941929
F        -4.24741469211464       4.26387306318714      -1.82782113789268
F        -3.75578026233211       3.16573440921156      -3.83543748814074
F        -3.46727055893885       2.05745723692454      -1.79455253980602
