37
C9H17F2N3O4S2 optimized with ForceField in AMS.
N         1.02451054076388       0.35541756969757       0.43956819359455
N        -1.00121806771547       0.34404500589234      -0.47599196634133
C         2.27618970432436      -0.11007764727848       1.03316411652785
C        -2.25514077899500      -0.13522628050812      -1.05350830759913
C         0.01787583308935      -0.41093554207897      -0.02259091662254
C         3.45258191956395       0.09821382378731       0.07347186210174
C        -3.41469896462094       0.03721132011664      -0.06726993518232
C         0.62990904895773       1.63412214787439       0.27397802780971
C        -0.62915180638017       1.62705194260832      -0.29274234468996
C         3.29875252159421      -0.72812139526417      -1.20263879109292
C        -3.22093450439492      -0.80870338461459       1.19048867833719
H         2.19747188356275      -1.18857956942541       1.29380860053967
H         2.46492940840735       0.44744194203753       1.97598643110019
H        -2.16204533481930      -1.20788649041965      -1.33273312281501
H        -2.47254351002515       0.43373140942633      -1.98320117660996
H         0.02473054755865      -1.49410445986414      -0.02444396636290
H         3.54204358170622       1.17446139005719      -0.18930004545219
H         4.38941760229002      -0.20907683076944       0.58671353420783
H        -3.50963424302105       1.10668848600623       0.21588702054810
H        -4.35874348080298      -0.27214676432797      -0.56575947216640
H         1.20993416103485       2.50483067422168       0.55105168766991
H        -1.22784015495451       2.49110264257894      -0.55047230884913
H         2.43270337700353      -0.36579926389806      -1.79642706803629
H         3.14982461925497      -1.80078806465888      -0.95409877946292
H         4.21561144451800      -0.63067438966002      -1.82109380897371
H        -2.36202784583401      -0.42854009141857       1.78342102925070
H        -3.03920885624502      -1.87077598468973       0.91998698893614
H        -4.13310956660418      -0.75610808573492       1.81960817084981
N        -5.47319498134112       2.70760160227505       1.25159521609302
S        -5.83298848604764       1.92279800776471       2.64084445339443
S        -6.64272026034269       3.16079209837780       0.20132325083440
F        -6.53869734484164       0.44739828367094       2.28299900365129
F        -7.44314461721545       4.49814663995408       0.81203104137823
O        -4.57584673556207       1.69998441384653       3.43229435962621
O        -6.80187866432764       2.73950336350562       3.44834828769578
O        -7.63152968062538       2.04448289055951       0.01489993550466
O        -6.02120842671349       3.51467233855239      -1.11950030359468
