54
C14H26F6N2O4S2 optimized with ADF in AMS.
N        -2.65522022230900      -0.71414201570916      -0.35826566167014
C        -2.44662505262254      -2.14247603006307      -0.80745326180779
C        -3.91230695912129      -0.82809916393027       0.48605874499839
C        -1.52175472546743      -0.19784972876081       0.49347998674288
C        -3.84825884155797      -2.66718638138290      -1.12924322086854
C        -4.81029311300496      -1.80750123105066      -0.26576048249036
C        -2.89576491509928       0.16443459672107      -1.57489808462851
C        -0.18085916661967      -0.07350966025060      -0.19724351944077
C        -3.04783647265384       1.64060434161357      -1.27232809428569
C         0.83436585262208       0.42898170905381       0.83345977391277
C         2.22578973872032       0.65176979471002       0.25302785294352
C         3.22150933592082       1.13922312462070       1.30300603101264
C         4.61631536904860       1.37352621465874       0.73096314198549
H        -2.00763837581489      -2.66689714540303       0.05417696606494
H        -1.73949410087631      -2.16747344373896      -1.64605371130674
H        -4.32922740152788       0.16861900869526       0.63591191637957
H        -3.59117513692973      -1.21385213346264       1.46406501551318
H        -1.46334197297489      -0.87915901934605       1.35499583515408
H        -1.85810520524823       0.76774514618632       0.89556166593620
H        -3.91362578402446      -3.73799944939978      -0.88999093258465
H        -4.07291445433333      -2.56243439913905      -2.20081426846964
H        -5.54414780883326      -1.27774391295105      -0.89007320625325
H        -5.38231689556869      -2.41099606129899       0.45215439105803
H        -2.04464559529261      -0.01637141591240      -2.24835779677137
H        -3.79917785599187      -0.23160547042381      -2.05964456877861
H         0.15639945806414      -1.04201021995055      -0.60807684245941
H        -0.22797075495260       0.64380340255016      -1.03516506806394
H        -3.30705478207409       2.14812771686011      -2.21410120430939
H        -3.84371619991673       1.85112245309856      -0.54702849463401
H        -2.11993642139148       2.08795748936211      -0.89313571377712
H         0.89173451831524      -0.29480302719666       1.66683619424771
H         0.46019374505851       1.37022651147884       1.27546883042750
H         2.16867880082275       1.39054308412517      -0.56912506828918
H         2.59644260660156      -0.28941066202185      -0.19609495149390
H         2.83933323466901       2.07245062076768       1.75511083069931
H         3.27211496151368       0.39846578644815       2.12204348739268
H         4.59127412811801       2.13379101623056      -0.06657106378562
H         5.31569318668668       1.72085686885844       1.50637092934728
H         5.02488134352736       0.44600328892145       0.29764880163139
N        -4.76174757613464       0.99130768072988       3.62916665988384
S        -6.01006704443857       1.97484026776910       3.30841199157496
S        -3.24250747632796       1.34546117290475       3.29349736952195
C        -6.74566393870599       1.24064060826389       1.72228819341122
C        -2.61010885752820       2.45711512124085       4.68729883441795
O        -7.05609626530832       1.69352880112529       4.27660816353813
O        -5.67342147357694       3.33935077114772       2.92762604673061
O        -3.00651194912931       2.13671869517707       2.07528065487305
O        -2.45961730064962       0.11940971351922       3.47156912360989
F        -7.97495168225490       1.75807172914176       1.51726371242615
F        -6.85320683313989      -0.11445012791628       1.77974772382219
F        -5.99141009493922       1.54143046397243       0.61542184909692
F        -1.28187917131140       2.67402159459149       4.48616669715934
F        -2.77000341734770       1.85618043903666       5.88611580251108
F        -3.24023933578909       3.64716266782772       4.70495468524378
