39
C9H20F2N2O4S2 optimized with DFTB in AMS.
C         3.89318500749071       0.64578482504918      -1.03118729194227
C         2.70493208580973       1.52592398671390      -0.65451890795220
H         1.33519770125727      -0.49826350402418      -1.92181340811109
H         1.38724967060374      -1.49930430544982      -0.44547314412159
H         3.57734294054635      -1.24260011385729      -2.09272665422738
H         3.76153705722329      -1.40480291803144      -0.33969127355914
H         4.67264286721811       0.70883713439016      -0.27120311694181
H         4.31334365744636       0.98029525083478      -1.98114261321474
H         2.94011301024271       2.24996592269468       0.12502854866253
H         2.30118325284989       2.04358542732492      -1.52774446716777
H         1.22247645663206      -0.49283647374838       1.62726355581125
C         1.88580733459610       0.30147276728961       1.29446212758356
H         2.91701518321026      -0.01358150417556       1.42267163261539
H         1.71213991470264       1.20643904433192       1.87168626405430
C         0.30353970292400       1.23885740718386      -0.34024090809304
H         0.36648628604351       2.19814197019843       0.18071356725086
H         0.19311669702850       1.43399234246980      -1.41069366421223
H        -0.72184824621942       0.05047653989160       1.16555992620147
H        -3.15404385492447      -1.90260427128190      -0.98491518616352
C        -1.43253570503040      -0.62176202942104      -0.76522290968475
H        -1.50547467961512      -0.22347811363025      -1.78279810401210
H        -0.73905690219032      -1.46680450354756      -0.78292861335773
C        -2.80511939056552      -1.11887435318857      -0.31313650023734
H        -3.52967204954027      -0.30403181660533      -0.32185788711031
N         1.64105470662185       0.58978783743211      -0.14509252888368
C         1.83350804095179      -0.64972923185820      -0.96128485074449
C         3.34341322576864      -0.78169029333132      -1.13200227520699
H        -2.74919933648950      -1.52507235206291       0.69720603541620
C        -0.91567123666899       0.47166662759130       0.17704382567153
H        -1.70556992490704       1.22046265647316       0.29890254937050
N         5.86642747187156       0.37505885555000       3.27409719840697
S         5.86181430732940      -0.77537246478882       2.18135509816070
S         4.76765111759537       1.50204246920039       3.12565327800947
F         6.44231982445929      -0.03769797463929       0.84325975284996
F         3.38888261425757       0.78248750748454       3.66289801826222
O         6.85691890055485      -1.73058401955763       2.51965970857294
O         4.57278265667386      -1.25030155111625       1.74376960398403
O         4.40023010650127       1.88894455309229       1.78575687698549
O         5.01643012834037       2.52178426231912       4.08320332987480
