44
C14H26N2O2 optimized with ADF in AMS.
N        -0.00718264716682       2.59922103460267       0.31759088526007
N        -1.97797084705730       1.72525861390569       0.34021761103912
C         1.31804605464738       3.00488971126952      -0.17480944919253
C         2.37875078320169       1.98504967078485       0.23393580195888
C        -3.16124355499266       1.00407491614359      -0.14040668224542
C         2.11619104335079       0.60689769257619      -0.37013714987339
C        -2.97759443467035      -0.50923654517142      -0.04188480149344
C        -0.96626727794529       2.08729316311270      -0.46972403604230
C        -0.40709185333657       2.55231335948995       1.64125165984725
C        -1.65470696619866       1.99677095780297       1.65654423584163
C         3.21056109215972      -0.40674096837592      -0.04839134060687
C        -1.83287020854593      -1.03804041894503      -0.90586560096049
C         2.92724532942952      -1.77287242506926      -0.67046563715830
C        -1.74844242176163      -2.56141341687287      -0.88663750741102
H         1.53052485340215       4.00956882110898       0.22179402150557
H         1.22906030440006       3.02851479882285      -1.27679527901798
H         3.35100432378035       2.36981886162362      -0.12195751362363
H         2.44757467251242       1.91923118980179       1.33642836529648
H        -4.02429686528732       1.35158029874838       0.44703493584009
H        -3.30241784984802       1.30724276326116      -1.18876084027353
H         1.99887916247877       0.72026153803736      -1.46263940574198
H         1.15262986240249       0.21803086581760       0.00721013079200
H        -3.92969352259132      -0.97109199200378      -0.35991501128190
H        -2.82436299145777      -0.79410292064414       1.01579124804176
H        -0.97389394616246       1.89093954983403      -1.62705602414061
H         0.21124092970745       2.92910378469691       2.44686564092304
H        -2.33570853713968       1.79660839051112       2.47495205183769
H         3.31294541245262      -0.50792440142341       1.04833088004208
H         4.17975803035003      -0.02523819354271      -0.41865395878726
H        -1.94858099492063      -0.66541516748066      -1.93834604113113
H        -0.87688634097883      -0.61917173839668      -0.54964245871412
H         2.85750401738097      -1.69189571749437      -1.76687874846382
H         1.96928970653878      -2.17848132782002      -0.30558849884765
H         3.71729252955571      -2.50116733718623      -0.43112808094263
H        -1.58891774107154      -2.94212172065347       0.13551801020910
H        -0.91569373351785      -2.91530946174179      -1.51285077069045
H        -2.67613035806269      -3.01439198333162      -1.27293799029548
C        -0.02723785990457       1.09162039785570      -5.10338770536636
C        -0.08410203200184       1.57344124902769      -3.65469667438868
O         0.95470155345181       2.05762730613106      -3.13569239985443
O        -1.22078882980422       1.42757294170166      -3.07050503666102
H        -0.12541802956474      -0.00521091348487      -5.12910318724329
H        -0.87449771553434       1.50374626442317      -5.67121896806215
H         0.92004089472029       1.38043866774706      -5.57616566952288
