60
C16H36F6NP optimized with DFTB in AMS.
N        -0.61060237242600      -0.34416771786264      -0.33179227720888
C         0.12860566587954      -1.42048148448641       0.43029829952742
C        -1.76120292004059       0.13570986127150       0.51962027098491
C        -1.10166345618778      -0.92695884700298      -1.63031007051720
C         0.27963402194214       0.82800813970687      -0.63042809902790
C         0.91503636607081      -0.94197073284907       1.64799864485130
C        -2.71754024858448       1.12138346951678      -0.14335753906490
C        -2.08243399211753      -2.08970961626058      -1.48767816700961
C         1.55188334632567       0.50621342923471      -1.41332342088551
C         1.36202267242494      -2.16904937959435       2.45522673172821
C        -3.79803831493965       1.50430991243174       0.87846630223272
C        -2.58975866814047      -2.50276410123844      -2.87400308798494
C         2.41212303347447       1.77225822116304      -1.51955398783148
C         2.15923523167101      -1.75003392040526       3.68746019432134
C        -4.82814471414008       2.44687142167101       0.26236582666292
C        -3.45440837522785      -3.75836613661676      -2.78050495791474
C         3.69050988599918       1.50239250007393      -2.30992229008357
H         0.79691392216390      -1.91639321026934      -0.27794252321922
H        -0.62584240010400      -2.13622234420944       0.75494168042062
H        -1.32374970743551       0.59002827724949       1.40989447543077
H        -2.31760106198099      -0.74619525978186       0.83215108181216
H        -0.22025487962204      -1.26839694007635      -2.17804834187361
H        -1.55970767952471      -0.11141290826570      -2.19554993073707
H         0.53845018460943       1.28183814700377       0.32893611978071
H        -0.31600608461970       1.54632712181185      -1.19838658106332
H         0.29067723975615      -0.31429810223016       2.28619596527660
H         1.79273770712847      -0.36245415533302       1.34581523915313
H        -3.19805346324683       0.66773287118466      -1.01446769024227
H        -2.19647759217211       2.02527173286616      -0.47401962377774
H        -2.93234949136501      -1.80987868008104      -0.86393288812593
H        -1.59007698715632      -2.94152433371280      -1.01442668105432
H         1.30487507235543       0.15764170076309      -2.41959802985651
H         2.12936318491416      -0.27610418642863      -0.91618465590583
H         1.97411592294905      -2.81996012975801       1.82155892983154
H         0.47797507126444      -2.73091896560600       2.76906025257249
H        -3.32548112026749       1.98816608506108       1.73915426406230
H        -4.29420461761314       0.59777658212753       1.23515181427055
H        -1.73767717077429      -2.69499308590936      -3.53581775757411
H        -3.17243781587625      -1.68299508374944      -3.30801961624879
H         2.67035054775578       2.12046222180581      -0.51417155571086
H         1.83651187488719       2.56315274712544      -2.01168084451777
H         1.54951150079000      -1.12242828632743       4.33806060086014
H         3.05231455751777      -1.19203672035762       3.40020907757731
H         2.46538704889492      -2.63427681309649       4.24600257961781
H        -5.32333948714122       1.97196279114984      -0.58581229710142
H        -4.35248748379390       3.36648740961030      -0.08278249646265
H        -5.58292572158821       2.70342300351381       1.00529606446338
H        -4.28547137519083      -3.60424920167798      -2.09195738727085
H        -2.86113694582974      -4.59978792159788      -2.42122955235629
H        -3.85495294491763      -4.00808066446017      -3.76294285945945
H         3.45250231164605       1.17140206430244      -3.32148307863217
H         4.28560593030587       0.72992850627596      -1.82159397491511
H         4.28580459113722       2.41295514122407      -2.37254568221025
P        -2.87663076128995      -2.56453656484182       2.86134801833106
F        -1.77921037938422      -3.68495376002967       3.33174110064131
F        -3.25385846451555      -2.20539809968580       4.39884036057895
F        -1.65619781609394      -1.40329343375296       2.88879655943648
F        -3.90877756120134      -1.39061504345543       2.29988314004731
F        -2.46117412328477      -2.87886419061988       1.24965837037813
F        -4.05245590176940      -3.68081546621415       2.76532337799270
