33
C9H14F2N2O4S2 optimized with ForceField in AMS.
N         1.10639580700668      -0.00965170206807       0.55519330560651
C        -1.24664918430910      -0.00208021467595      -0.13766646279742
C        -0.27547582606323      -0.01603945011336       1.04713211333659
C        -2.70196041803574      -0.00434210918839       0.33805063510333
C        -3.66697199930969       0.00744539253758      -0.84411151561604
C         1.73185933373888       1.18195511948071       0.31104355969537
C         1.73623580798283      -1.19339515320555       0.28245008431429
C         3.01731289049028       1.20834376499434      -0.23115077598583
C         3.02442018688888      -1.20237100147047      -0.25767750595250
C         3.66527737965096       0.00787488997131      -0.51900341769187
H        -1.06125354764155      -0.89836067688001      -0.77012725182766
H        -1.05855880568603       0.90634211995634      -0.75191083955320
H        -0.45611234792636      -0.91723516089615       1.67531945938662
H        -0.45682552535845       0.87072582110552       1.69576927341321
H        -2.89301469819856      -0.91256373794196       0.95029547498306
H        -2.89067272024891       0.89343939054079       0.96627894575406
H        -4.71203826282776       0.00464252757600      -0.46924169735513
H        -3.51280524287224       0.91927170945429      -1.46008474130390
H        -3.51406515433539      -0.89286838199136      -1.47708705025387
H         1.23164838272080       2.12066766960328       0.51956875274378
H         1.23803715892555      -2.13793151268456       0.46790579282911
H         3.49746979479304       2.15462923139171      -0.43573171695896
H         3.51581803977858      -2.14051947333204      -0.48061136677399
H         4.65914839553649       0.01520341881969      -0.94733437784401
N         8.50533683159516       2.53666704339407       0.23539722151423
S         7.35960895564581       3.40036665599979      -0.55054037453260
S         8.24353966026070       1.96109832657050       1.74466729656448
F         7.29493452954324       4.94513754701963       0.09203105639223
F         7.20236224024674       0.65199247528599       1.66309675279982
O         7.69873706515794       3.47996067676842      -2.01171397079888
O         6.02010241563452       2.74502836847619      -0.37606746538523
O         7.61792104800618       3.02854719519299       2.59787146068205
O         9.54711954610973       1.52570862040872       2.35092228881237
