40
C12H22F3NO2 optimized with ADF in AMS.
N        -0.13657550480960       0.28936100091085       0.29042953545777
C        -0.70033542339346       0.62517637079643      -1.07222595348015
C        -0.65903663302795      -1.06688132840987       0.71163100146244
C         1.38848735837958       0.23183657201491       0.14219039040759
C        -2.21797790426742       0.57985349740131      -1.11564694910565
C        -2.17485041202726      -1.20098238069413       0.63231580930970
C        -0.51525346455663       1.34103442469032       1.34332825295141
C        -2.71937655683452      -0.81356311759317      -0.74028182702323
C         2.14263753787394      -0.42604834851705       1.28588640094996
C        -0.44058963481520       2.77356678179718       0.86167586649323
C         3.64135937374415      -0.35871357087337       0.97507338547813
H        -0.28402448261235      -0.12843029404309      -1.76011944962662
H        -0.28989942396358       1.60472082853373      -1.35094707644979
H        -0.29879026288584      -1.23944685530236       1.73417557474153
H        -0.17255379275490      -1.79532121657939       0.04250160723142
H         1.73110664772884       1.28046845046947       0.05717055208659
H         1.57147208253268      -0.30513884660823      -0.80386311456440
H        -2.53105550535624       0.85005338737635      -2.13849729907960
H        -2.64755495058750       1.33739085591905      -0.43916208880086
H        -2.65541933746715      -0.58787569906252       1.41262910214476
H        -2.41822281604186      -2.25034241680882       0.87136216993424
H        -1.52143315955644       1.07961266908746       1.69690921603011
H         0.21735475698015       1.22808221995930       2.16084196349862
H        -3.82107744562378      -0.84560058107890      -0.73815427143802
H        -2.37680152402226      -1.54314837762583      -1.49796119755181
H         1.95310196544634       0.12803393211806       2.21997439669395
H         1.84504425414293      -1.47951367221633       1.42013284228768
H        -0.60290168655634       3.40487101198960       1.74907300302209
H         0.57673636012496       3.01736909490449       0.51088975309882
H        -1.20419944104906       3.03033991691767       0.11203522069962
H         4.22106500927590      -0.75748603976908       1.81956047362317
H         3.88993532608057      -0.94772329166988       0.07703244801936
H         3.95268966924011       0.68279397961483       0.81210093679229
C         2.76000776816908       2.78029120672626       2.18267067682979
O         1.91719064272526       2.28311613775356       2.96957402491405
O         2.75175846082281       2.89278705938083       0.92874728832959
C         4.08322871284648       3.28371897864424       2.85952270650210
F         5.04578006711651       2.29618338294577       2.78261616367134
F         3.93811996177898       3.58361105320787       4.18172138003414
F         4.60814118240007       4.39030226409248       2.25522542942465
