56
C16H32F3NO3S optimized with ADF in AMS.
N        -0.92295904087372       0.80374589592814      -0.67580697805909
C        -1.47745347939097       2.00509342955201       0.08123675662525
C        -1.77869758810643       0.59353595011218      -1.91873147431366
C         0.48016526006368       1.12331949497902      -1.16956658585728
C        -0.92674775701644      -0.40334258157432       0.23293893424696
C        -2.94997841138897       1.85424784628487       0.43452427005429
C        -3.25131003001861       0.40709507078012      -1.59634123034681
C        -3.79488076370005       1.60484986698245      -0.81538637142290
C         1.50912700203437       1.40189834630005      -0.09258762225428
C        -0.32015594350082      -1.66713620167706      -0.34993886795722
C         2.84330914184647       1.77318987622466      -0.74531833924660
C        -0.45368801161798      -2.83129787108226       0.63454423310808
C         3.92233302717941       2.09003288158320       0.28720081677855
C         0.14715834125599      -4.12572038826953       0.08891288048854
C         5.24818101868660       2.49330979668088      -0.35072356326109
C         0.01826311561352      -5.29586086131438       1.05985107771330
H        -1.35381517853205       2.86702834596424      -0.59487048823855
H        -0.85465380570400       2.13088283350067       0.97617026788591
H        -1.35174880048616      -0.26426327066761      -2.45654618883073
H        -1.61530362590614       1.49584797923094      -2.53010390081802
H         0.36104008093105       1.98585838046948      -1.84621967508248
H         0.78394274336461       0.26862166042279      -1.79278331441145
H        -1.97102314687019      -0.58425844364802       0.51461617398421
H        -0.38828318487100      -0.09907757388243       1.14317217397230
H        -3.25000725420601       2.80148289592987       0.91265815320090
H        -3.10647366363237       1.06251214863622       1.18822280203981
H        -3.42448461047056      -0.53763661314840      -1.04944073944853
H        -3.77744053653597       0.30596719208509      -2.56009390537414
H        -3.74109063539323       2.50041107186277      -1.45716174369191
H        -4.84886929068697       1.44041915353415      -0.54068181450333
H         1.19059589677561       2.24873913508122       0.53633188894736
H         1.66036778226002       0.52988064089615       0.56886239253454
H        -0.82407724294138      -1.93990650004118      -1.29206738560546
H         0.74637818908501      -1.51623137882104      -0.58254691473396
H         2.68881012234309       2.64799387030450      -1.40075618422480
H         3.18371718350181       0.94549202673464      -1.39505397592736
H         0.04279400401839      -2.56958978755935       1.58736405937813
H        -1.52112110948617      -2.99535902702313       0.87219570620220
H         4.07378310986591       1.21026848068979       0.94016372422573
H         3.56318308450335       2.90677152636657       0.93922121937599
H         1.21265155852945      -3.95610934747021      -0.15006716210885
H        -0.34913854099513      -4.37853806678199      -0.86552975723490
H         6.00876274254352       2.71336817058699       0.41310855927972
H         5.63855425230016       1.68894824234596      -0.99502915411066
H         5.12405613961768       3.39201071790170      -0.97564619608224
H         0.45901080545766      -6.21211575715789       0.63973686201018
H         0.53151200667429      -5.07997133071818       2.01093530574909
H        -1.03910406674421      -5.50550958675072       1.28903229707069
S        -0.95179856210159       4.29374079256732      -3.14181789166564
O        -1.25689664475845       5.17323871497138      -4.26528617421059
O        -0.21492669289835       3.04645540037184      -3.46580233671855
O        -2.03163743117728       4.09019490506214      -2.14635156137850
C         0.31931879671963       5.25497412564153      -2.14500046424383
F         1.44967524681789       5.48704720765053      -2.85981617710304
F         0.69451709876479       4.55074163990043      -1.01720796319680
F        -0.16948174874272       6.44721888777116      -1.72519446970849
