34
C10H22ClN optimized with ADF in AMS.
N        -0.61572762426459       0.07381315832747      -0.14770371580260
C        -1.63712668645923       0.15862629779996      -1.27064999928186
C        -0.81311894165140       1.40951931704470       0.55409266273482
C         0.77252310631933      -0.02925735822560      -0.74118567758770
C        -2.86559004229891       0.81524200101588      -0.64944817928117
C        -2.32040957295721       1.66345425982976       0.52803362327392
C        -0.92961267159231      -1.05014584784037       0.80924201736419
C         1.88696401577571      -0.02475174404959       0.28586288577414
C        -0.70932682646373      -2.43970203253639       0.24338429051750
C         3.24396777029795       0.02746551429669      -0.42019603525514
C         4.40563895355395       0.04303085412904       0.56772165365771
H        -1.79844547729602      -0.84138527367987      -1.69196734294846
H        -1.17488459955726       0.85079827121509      -2.00712572091792
H        -0.37280736085897       1.35303065852752       1.55781650433376
H        -0.29871609195574       2.14632472701933      -0.09960480094676
H         0.78744036821357      -0.94156550343572      -1.35675918842204
H         0.84177946426591       0.86009664509351      -1.40993947986474
H        -3.35189196237978       1.44574506600179      -1.40764378521225
H        -3.60387605999955       0.07658658926438      -0.30037720740055
H        -2.80586821051702       1.38618395155286       1.47594210837615
H        -2.49032830294341       2.73631139062913       0.35797296198681
H        -0.29670613633745      -0.88807711366769       1.69442326990201
H        -1.97626035515669      -0.90959928369888       1.11561173006603
H         1.79724893378679       0.86739928766101       0.93027541802627
H         1.85309117514548      -0.91338020444602       0.94360097060410
H        -1.05926472315019      -3.17670941715104       0.98198420841630
H         0.35323870106733      -2.63960726060511       0.04753669076645
H        -1.27554679785515      -2.60772961954274      -0.68379516079955
H         3.33784337791961      -0.84190798182192      -1.09647136595483
H         3.27228954063700       0.92788842787159      -1.05789208586935
H         4.39877878071814      -0.85764005119654       1.20273396980428
H         4.34503886305056       0.92271244460569       1.22840328894241
H         5.37251937936373       0.08116652014724       0.04474051256581
Cl        0.04861975197957       2.81417196346484      -2.28006312986776
