40
C12H22F3NO2 optimized with DFTB in AMS.
N         0.00867159972872       0.16670214246083      -0.17498946990310
C        -0.81927800145338       0.83859413654799      -1.23600313570928
C        -0.57542336678060      -1.18391635556836       0.10648641015590
C         1.38689080005534      -0.01233545921221      -0.75996743224602
C        -2.28779870621087       0.95369246787394      -0.86044407303797
C        -2.05174340972677      -1.13626146411361       0.48987601963410
C         0.05928885429037       0.97261829806478       1.09327975502706
C        -2.87827446509772      -0.42743687686436      -0.58212377367622
C         2.42907858414458      -0.64354673401720       0.15593765245637
C         0.69246522517412       2.34862083788369       0.95165395019454
C         3.76198667711610      -0.67590035664856      -0.59513654156910
H        -0.71023056929579       0.23970520135417      -2.14231302947325
H        -0.37800743078625       1.81469831762291      -1.43369419455841
H         0.00630017082596      -1.64148425011733       0.90935127674284
H        -0.44852376285999      -1.77652512389790      -0.80360618765245
H         1.71871046045535       0.97491443252973      -1.07483379515545
H         1.26607809500089      -0.61414906401079      -1.66279579401647
H        -2.80412059929196       1.41305092833007      -1.70691779328911
H        -2.42597757017604       1.60719087814070       0.00540147487301
H        -2.18205583457434      -0.64060702234169       1.45586423245840
H        -2.39202815189492      -2.16933749624082       0.60084200253658
H        -0.96505895921169       1.08193864568235       1.45317702835162
H         0.61013551785872       0.37668825246107       1.82494965005378
H        -3.91343329331156      -0.33376458529744      -0.24569429729794
H        -2.87025391187625      -1.02083115790796      -1.50180632252831
H         2.55333037629602      -0.05852307403195       1.07105703906148
H         2.14268568612790      -1.66139074907070       0.43751850741294
H         0.69968431928795       2.80790492897728       1.94022928253750
H         1.71709604659619       2.29556185722519       0.59099832225275
H         0.12096023297882       2.98652719103042       0.28192026341614
H         4.53565792817873      -1.10159633259274       0.04272944307505
H         3.67706895009432      -1.28229612836681      -1.49695259710589
H         4.05626269702075       0.33383706297174      -0.88163942460137
C         1.75580825487134       2.05585073933338      -3.75003790924971
O         2.18172929817669       2.33264790433991      -4.84394950185735
O         1.06553493726813       1.14453530510260      -3.28532700710656
C         2.17699615998533       3.11996129237471      -2.54716685206796
F         1.08218370737764       3.44791887503268      -1.79462374460898
F         2.73639570513470       4.26906563517616      -2.92249060495502
F         3.03694658240350       2.54043596908411      -1.65574440097416
