51
C13H24F6N2O4S2 optimized with ForceField in AMS.
N         2.01180640803138       0.41214797692436       0.05473354521181
C         2.21249228853549      -0.91574032707814       0.69134844087054
C         3.13765296097284       0.56163272312418      -0.91664541553145
C         0.70825141465405       0.47934382847390      -0.67407772240152
C         3.67054952503389      -1.28507956709835       0.51944733725686
C         4.03762796845530      -0.66259193555351      -0.80195464229733
C         2.09789292705264       1.48701221478854       1.07758670966126
C        -0.53905208104077       0.30205585657079       0.22275640321337
C        -1.80379425721020       0.14210894516388      -0.63067636661252
C        -3.04926430309637      -0.00483038386702       0.25011726385610
C        -4.31198148562047      -0.15950040570766      -0.60488779471648
C        -5.55071903531666      -0.33311944548350       0.26835881018581
H         1.60864476620816      -1.70478785356799       0.18536681145888
H         1.93252659173020      -0.92865723200838       1.76955052089499
H         3.75206463210405       1.47183216388286      -0.72158894506189
H         2.79325047436910       0.65647223249537      -1.97257675531044
H         0.68565986708087      -0.30523458354736      -1.46613759933003
H         0.61952607516528       1.45894111570743      -1.19824147247141
H         3.82096765091884      -2.38652711712498       0.51151140382441
H         4.27513209669021      -0.82868656171671       1.33400153745753
H         5.11521752187014      -0.39229426371601      -0.83889217371114
H         3.80738158137102      -1.37637329402659      -1.62437546963357
H         1.35729710221192       1.33969873434053       1.89242693631475
H         3.10228349229036       1.50033678769369       1.55763978059107
H         1.92074924883262       2.48542756203298       0.61891397028670
H        -0.43062560395292      -0.59270232222096       0.87130312227033
H        -0.66381856988118       1.19593532529899       0.87016434441809
H        -1.70253964480599      -0.76125071676900      -1.27230081905493
H        -1.91972627435876       1.03185281152486      -1.28819847232165
H        -3.15169872751243       0.89307619196604       0.89886314395676
H        -2.93205018992438      -0.89864252383503       0.89987040889541
H        -4.44487515316908       0.74161183358089      -1.24263382007576
H        -4.21216093720001      -1.04678360577630      -1.26723385515727
H        -5.68814381852637       0.55362739597493       0.92306286412229
H        -6.44762556129777      -0.44132247312051      -0.37715166863713
H        -5.45471498703398      -1.24264128303245       0.89825847001831
N        -4.10950127262354      -5.06237167722766       3.49450536734171
S        -3.43749637274097      -6.49408466067754       3.92449408557804
S        -3.41981176292287      -4.04706336069033       2.40759617828749
C        -2.32284854717523      -6.23966255759759       5.29130239226902
C        -4.13870073028935      -4.32925436559702       0.80302805193648
O        -4.52428922785642      -7.43781741561898       4.35540077644247
O        -2.68311639806607      -7.08997564227663       2.76854907201996
O        -1.93517617088050      -4.27243962726971       2.33458132846049
O        -3.69386936210512      -2.62922170860896       2.82061385026722
F        -1.82627921425440      -7.45746667816747       5.71517454650284
F        -2.99980915647396      -5.63464565391778       6.33289465003663
F        -1.27373178526997      -5.43165035165618       4.89798568092686
F        -3.53449125367919      -3.50488264172599      -0.12649081546122
F        -5.49216395084743      -4.05529962278652       0.84793949494279
F        -3.95134859384599      -5.64724721077538       0.43390760280842
