78
C22H36F18NP optimized with DFTB in AMS.
N        -0.88284354169535      -1.16632459552489       0.33194783574904
C        -0.62798623473509      -2.45374766549311       1.08032298341459
C        -1.28884802360039      -0.11152386354600       1.32208941324718
C        -1.96914114830989      -1.41756845841184      -0.68750223230119
C         0.35758054192865      -0.70290072683291      -0.38914405033125
C         0.48326172715730      -2.39840767499043       2.12417247987195
C        -1.65923862120314       1.24322735969594       0.72046875943132
C        -3.37504447569939      -1.60887291044066      -0.12184177277147
C         0.97241042000197      -1.72276255769977      -1.34469204608799
C         0.74673596171190      -3.82314327482021       2.63010524599176
C        -2.19363477292806       2.15853858089310       1.83005928192339
C        -4.29405105238340      -2.11850884253392      -1.24172498404140
C         2.26935068660844      -1.15845084789689      -1.93684266564018
C         1.79857890448808      -3.83424294020946       3.73492316755859
C        -2.56498456409549       3.53224708880025       1.27657415663143
C        -5.69694131710421      -2.40198440790920      -0.71106385650789
C         2.89768059861955      -2.16424687368425      -2.89945362424816
H        -0.39937904342188      -3.21479484775702       0.33408786196024
H        -1.56648939698346      -2.72947170395390       1.56354424963258
H        -0.44983350504815       0.02083185629192       2.00844562309248
H        -2.13261729501799      -0.51458589155386       1.88671598547120
H        -1.67739835350664      -2.31782361936485      -1.22689065484201
H        -1.95955571693086      -0.57757939545838      -1.38619125891043
H         1.08414618263636      -0.41577788888563       0.37482215220802
H         0.08114277274433       0.19303439008361      -0.94965163139931
H         0.19321822212984      -1.76125757323218       2.96512429048410
H         1.40620287735987      -1.99819333682961       1.69657589530230
H        -2.42439309230719       1.13335688457699      -0.05096958578979
H        -0.78271129422624       1.71029759498733       0.26377331971928
H        -3.77000819924718      -0.66705159590968       0.26929729056733
H        -3.37009938681608      -2.33848755953818       0.68999672362698
H         0.27770124705654      -1.94267355500352      -2.15692747606128
H         1.19777957573420      -2.65756690482892      -0.82846691147729
H         1.08823063556425      -4.43742681793792       1.79384241837485
H        -0.18597361121603      -4.25515807405310       3.00394600413223
H        -1.43123847877016       2.26977643519446       2.60789163373379
H        -3.07516205298920       1.69722585993037       2.28683292489542
H        -3.87442979241009      -3.03667848143101      -1.66261753366768
H        -4.34198500380258      -1.37035631458573      -2.04006998987658
H         2.97285116240766      -0.93288658391689      -1.12819680109396
H         2.05461383517249      -0.22394464399944      -2.46631684952350
H         1.46672721190018      -3.24515314943765       4.59138591013461
H         2.74137338120726      -3.42190922657777       3.37233390825919
H         1.97040524497134      -4.85903377393977       4.06246492911658
H        -3.33803629787721       3.44029007394994       0.51301888421736
H        -1.69321800576008       4.01490228489788       0.83358320736348
H        -2.94235423947049       4.16434966129286       2.07979589760648
H        -6.13078837013714      -1.50411856197271      -0.26769668651248
H        -5.66493878761924      -3.18520576003672       0.04596957988449
H        -6.33811736874854      -2.73353633617985      -1.52714391276777
H         2.21325355562443      -2.38683883411847      -3.71825282924467
H         3.13031689006148      -3.09382613421395      -2.37982412908709
H         3.81851291995246      -1.75537836784342      -3.31441090995092
P        -0.89494099951002      -6.47291319330554      -0.87771443902581
F         0.40687821320119      -7.05844591989045      -1.74432278162234
F         0.13870453712822      -5.33476205960078      -0.12318662082690
F        -1.96947001806763      -7.52567311663034      -1.60663889590994
C        -1.18812936553650      -5.22818158410101      -2.37457564327193
C        -0.48534198821286      -7.85986929748159       0.43587955996907
C        -2.36068270344623      -5.63116824957039       0.21640981520415
C        -0.56949875090721      -5.56790185855395      -3.75695441109912
C         0.72126971991890      -7.65892785832461       1.38983244424561
C        -3.83807453025475      -6.10295630425930       0.22112279826955
F        -0.71279050621245      -3.98351504346653      -2.08952333524302
F        -2.51086563301199      -5.08320125465873      -2.57697194935967
F        -0.25227175589537      -8.99662366286823      -0.23700004668019
F        -1.56088201994078      -8.07985664270755       1.21500621295861
F        -2.43257367375331      -4.31813586683061      -0.15589969855663
F        -1.95890266273416      -5.60226264459682       1.50555934027461
F        -1.06575803321696      -4.73036706779395      -4.67842210426795
F        -0.83897094975430      -6.80432603035981      -4.14483079961320
F         0.75066201334477      -5.39488136123062      -3.74165437039677
F         1.00142782884397      -8.79039155913774       2.03634628660205
F         1.81454437611175      -7.28274893751078       0.73402116908802
F         0.45114803577184      -6.72857391856343       2.31020590251355
F        -4.56085906401348      -5.26737398840811       0.98694853803886
F        -3.98452819197965      -7.32529678693720       0.70780382117786
F        -4.35988117465069      -6.06845654575294      -1.00043556393651
