46
C14H29NO2 optimized with DFTB in AMS.
N         0.03870872354740      -0.28918343502870      -0.25118063776354
C        -1.17762304997363       0.55734898222807      -0.06277280386859
C        -0.32774781129678      -1.74249008055358      -0.17191266931880
C         1.00814947328516      -0.04075322915123       0.88023142844418
C        -2.27750142039508       0.21961365366045      -1.06301079994030
C        -1.44057193077761      -2.13519641054029      -1.13311860374000
C        -2.67366233768960      -1.25185652352081      -0.94541994962764
C         0.70361642291142      -0.00335717516722      -1.55274933939963
C         1.74848718241717       1.28885765405063       0.80787567114882
C         2.61007641014312       1.45079275856958       2.06916469158020
C         3.76403734101137       2.43562443516408       1.83965999338272
C         4.92046807306227       1.78605627395737       1.06997669256761
C         6.01004715437708       2.80456091404807       0.74150279115034
H        -0.87592628685388       1.60219313780604      -0.16084760339616
H        -1.53730231051621       0.38751788410028       0.95636335180154
H        -0.63920042215453      -1.93562456959600       0.85832112523917
H         0.59371377483367      -2.29998237215228      -0.37967457488639
H         0.43847094800801      -0.12548289187983       1.81000828481372
H         1.73578681875245      -0.85752628740015       0.82638921593250
H        -3.13748640024250       0.85770540031850      -0.84292530548631
H        -1.94753816600519       0.44202431128874      -2.08129153288916
H        -1.09656755000032      -2.07947738807765      -2.16912155912003
H        -1.69668260058987      -3.17776329751121      -0.92788894925046
H        -3.11263014517484      -1.43393268747970       0.04116492781915
H        -3.42404547776996      -1.49409005603336      -1.70182902517680
H         0.77758766409985       1.07321783683115      -1.68633783310227
H         1.70862568959456      -0.43854869372344      -1.51940907097009
H         0.12635072154547      -0.43227046170198      -2.36664332427768
H         2.40177617549671       1.27816556989439      -0.06641371918388
H         1.05748019351753       2.13325199064160       0.72007968374013
H         1.98178579799413       1.80002165936219       2.89550156392610
H         3.02392761299765       0.47831716189860       2.35544246971130
H         4.12921354044322       2.78302888945946       2.81235187610025
H         3.39495681190435       3.31125341896515       1.29362627459460
H         4.55190729962501       1.33652477381133       0.14305408301198
H         5.34647677257089       0.98067899127200       1.67762184877207
H         5.60931947162361       3.60662474221914       0.11910272156766
H         6.41540514079293       3.24523400832680       1.65446541156814
H         6.82225545058128       2.31899469266146       0.20040475668432
C         4.96821030035062      -2.40552833734048      -0.58668136626820
C         3.59621196137310      -1.69706808462718      -0.58418171334934
O         2.61182452059065      -2.38619681377892      -0.23135570967560
O         3.57204372865695      -0.49408319323485      -0.92288977933502
H         5.72329544485191      -1.77032729334737      -1.04530162337305
H         5.24943093469927      -2.62198902299066       0.44350008375205
H         4.88864213548104      -3.34613061789818      -1.12924360140963
