42
C10H12F18NP optimized with ForceField in AMS.
N         0.01049531732090      -0.01265372856433       0.00171576015317
C        -0.90084416159614      -1.13099939183681       0.32992039901726
C         0.64614744282905       0.48466140001607       1.24135938940812
C        -0.75941909139292       1.08111101339692      -0.63072347399710
C         1.05595470707894      -0.48528453358769      -0.93262347207183
H        -0.34641551246167      -1.97166351174383       0.80453467901728
H        -1.69597580050011      -0.80343017245706       1.03703453176217
H        -1.39810238920573      -1.52288518969746      -0.58578719663364
H         1.34434222722303       1.32374349480306       1.02261727915514
H        -0.11804219955045       0.85461067523858       1.96134455760369
H         1.22551490204340      -0.32247033144520       1.74342316212716
H        -0.09713270799920       1.93754588078626      -0.88991803025108
H        -1.25166383542729       0.73355075206780      -1.56684426432791
H        -1.55335385329924       1.45757111646554       0.05303106042496
H         1.75618390873756       0.33844994777120      -1.19853551604758
H         1.65371687016056      -1.30822647149012      -0.47993578397113
H         0.60445962101078      -0.86837650392674      -1.87543518335796
P         7.24393747511952       0.21618676777950       1.00393436424213
F         8.44625351287900       0.06257411295278      -0.21773210542585
F         6.95138133712542       1.86436372218703       1.41462153426065
F         7.12714437799850      -1.44445740303054       0.56879303237454
C         6.27809701299999       0.86707220370638      -0.54715773144700
C         8.95266286706411       0.39286677142219       1.89796426621849
C         6.09575293417731      -0.48249553094143       2.39429086538412
C         6.13586802263894      -0.08921982134391      -1.76217459933846
C         8.92963318069078       0.75990968962304       3.39669565844019
C         4.63714092663285      -0.80054757507034       2.00595608293242
F         6.91027506317604       2.00833876537064      -1.02620422133862
F         5.00478683584723       1.24573249603792      -0.17139783091934
F         9.70174354200275       1.38993617389247       1.27939157436906
F         9.64492662983497      -0.80437954505591       1.78369236796886
F         6.01734576977705       0.44983533084692       3.41328323852759
F         6.65472831640385      -1.63342116165882       2.93429360689528
F         5.28559062266879       0.49321180098720      -2.68579135538884
F         5.59952818864346      -1.31015588321633      -1.41308120357759
F         7.35143568169245      -0.29605218914719      -2.38972304497043
F        10.22818908186943       0.99641947990383       3.81425399480060
F         8.19833727917230       1.91028954225726       3.62636566995487
F         8.43305403923744      -0.27404895230261       4.16482103700078
F         3.90738565588236       0.36397804275658       1.86187040317998
F         4.05154037578457      -1.53309957176735       3.02336710532996
F         4.55503818750943      -1.54631339788552       0.85104009591586
