59
C17H21F18N2P optimized with DFTB in AMS.
N        -1.00589766544082      -0.98717116129595      -0.38901641329933
N        -2.99592223843716      -1.22021266326924       0.40019231409839
C         1.47595967124985      -1.14328414891780      -0.34281813841427
C         1.50939899942471      -2.17546773309102       0.78773592607860
C         0.20097276777410      -1.23694537614099      -1.18215052908710
C         2.76406545140974      -2.02677133529574       1.65120727910346
C         2.77777386151198      -3.08374869382457       2.76070075539911
C        -2.13562279664189      -1.68201402313773      -0.50319148493228
C        -1.15163757442819      -0.05780167559483       0.60593865740215
C        -2.40775477217492      -0.20612812806809       1.10332216325629
C        -4.34928266481950      -1.72630533099961       0.61090720720776
C         4.03032958041598      -2.96900807521153       3.62694342182183
C        -5.31889962266187      -1.03665193158456      -0.34083865707705
H         2.31624171861558      -1.31470920118905      -1.02238277943644
H         1.58007788518525      -0.13117550195236       0.06101207276025
H         1.48669175875964      -3.17834509230961       0.35612625263677
H         0.61966627207874      -2.06042837281462       1.41418160956630
H         0.22671027389392      -0.50151671469923      -1.99316714454134
H         0.09762986347806      -2.23660491079966      -1.61210083437528
H         2.79180016408696      -1.02439897722838       2.09439278322448
H         3.65535947039703      -2.13986791787557       1.02433690428913
H         2.73507778282385      -4.08028598178158       2.31059391447293
H         1.88800498667237      -2.96277373271663       3.38737187638734
H        -2.31731389733923      -2.48844878371345      -1.19242757931751
H        -0.36859939267111       0.62579689430203       0.88085642188120
H        -2.91697906352797       0.31295343704872       1.89623968672502
H        -4.33408199315027      -2.80407036909685       0.43869773662083
H        -4.61667799323474      -1.53505169017272       1.65263347592509
H         4.08051093847652      -1.98790360094217       4.10224035572034
H         4.92790219999559      -3.10761314169955       3.02235195690402
H         4.01543973391283      -3.73171835861101       4.40561937282696
H        -5.32212697778278       0.04015647536681      -0.17276098726348
H        -6.32151877503741      -1.42516400279383      -0.16968872232306
H        -5.03684617916459      -1.23179992007504      -1.37496649984242
P        -1.66283475945231      -5.25591444650284       0.23081205030319
F        -3.07639427569154      -4.40336433791968      -0.20239985371458
F        -0.77334591448729      -3.78997724709300       0.18922214338184
F        -2.54216749532860      -6.66916846513068       0.21011790092711
C        -2.20866992577061      -4.74675352126035       2.05361296983212
C        -1.31359912527344      -5.34846249680517      -1.73606385276399
C        -0.04521552652172      -6.29499109661403       0.77355066637595
C        -3.55824472619958      -5.23794001535151       2.64581089235792
C         0.13193285944733      -5.19300651275563      -2.32903767962687
C        -0.08886525755971      -7.36455043605976       1.91669890080457
F        -2.31448389403751      -3.39295316114668       2.09380974839482
F        -1.23508904522285      -5.07452382314037       2.92061086956571
F        -1.99329638885044      -4.30776155690855      -2.28602475784434
F        -1.83172363795022      -6.46438191865494      -2.25710679589444
F         0.98030338763511      -5.47232176789336       1.06066752026187
F         0.28545082898826      -6.96711353972790      -0.34983536293821
F        -3.64847453821719      -4.86499986129566       3.92547266253813
F        -3.72266056660385      -6.54799954503856       2.58804645348762
F        -4.57302505818048      -4.65736664445630       1.99316337521864
F         0.11202624837116      -4.31838520967702      -3.34522439489205
F         1.00375142667223      -4.70754253671540      -1.44214949934929
F         0.60096634046529      -6.33802445505073      -2.79660925541372
F         0.61231566762603      -6.95579188536356       2.96962344362524
F         0.42995754481543      -8.51661102790797       1.50217947326530
F        -1.33485518872378      -7.60506823904488       2.32108765359878
