56
C14H28F6N2O4S2 optimized with DFTB in AMS.
N         0.00070781025325       0.36257911712493       0.32794853621152
C        -0.76212503115441       1.49362397168266       0.98644926636301
C        -0.92793032107898      -0.59670409585209      -0.36011399720009
C         0.75990262230704      -0.38424834867202       1.39586620883095
C         0.94266764080664       0.94868180400855      -0.68928866689938
C        -1.96636170209466       1.08830010909387       1.83520450742362
C        -1.82976451069226       0.01776710239807      -1.43032259388401
C         1.65277442131903      -1.52833686794939       0.92571085722195
C         2.04521231265582       1.83892828782000      -0.11580589451342
C        -2.45720226072730       2.31917882801480       2.59965893872674
C        -2.78519999329834      -1.05344067309086      -1.95685258985192
C         2.37629852769351      -2.09251102955086       2.15084175957797
C         2.86513028796881       2.42722905829235      -1.26328300362091
H        -1.07797927676906       2.17261691626512       0.19068444564371
H        -0.04758419891178       2.01495319936291       1.62302628082350
H        -1.53546854309952      -1.06185380414468       0.41943122906444
H        -0.30727757129924      -1.37008389903064      -0.81809068531542
H         0.01976141304545      -0.76187315083709       2.10250962441534
H         1.37241418761027       0.35101922788812       1.91510061494332
H         0.33549537689112       1.53408934072588      -1.38349187024088
H         1.38405934797468       0.11452392387098      -1.24065028925030
H        -2.77332875470775       0.70025754038788       1.20698480962035
H        -1.68763162257846       0.31781150997445       2.55584052159522
H        -2.41211165630607       0.84546532337933      -1.02064020201156
H        -1.23098541593333       0.40089810328361      -2.26052089331710
H         1.06674297633260      -2.32191226775686       0.45339078997636
H         2.39227634497954      -1.17348824918044       0.20283739004498
H         1.61394903242588       2.65276312662693       0.47006127694874
H         2.70680045684112       1.26576990441665       0.53640956470003
H        -3.34541361763525       2.05694297107143       3.17241911070695
H        -1.68961981289136       2.66410372215478       3.29187147397266
H        -2.70667335708369       3.12784013573874       1.91148501316704
H        -3.42560138905578      -0.62528628521089      -2.72690038386174
H        -2.22855954250904      -1.88555605002158      -2.38884113326042
H        -3.41457141448965      -1.43385328751592      -1.15203164705718
H         3.06590328657160      -2.87729743947819       1.84262288234010
H         2.93654919537187      -1.30650200574094       2.65747331547508
H         1.65831600961132      -2.51209211658159       2.85542932956953
H         3.65622629046657       3.05560607043148      -0.85662976917265
H         3.32041531565659       1.63407313146406      -1.85744272780858
H         2.23641548687366       3.03566712952937      -1.91431861946662
N         1.27367309123124       1.71151196723846       6.02329694722369
S         1.45225344993970       1.42914797068996       4.47888959660837
S        -0.17008306476583       2.35236404636786       6.40350277260157
C         1.93467089320163       3.04320081254890       3.62110240989382
C        -1.37686465610541       0.90475606049745       6.37130022256701
O         2.61215914309430       0.59622010671464       4.26509084203188
O         0.23911107927985       1.03816004396992       3.76559137532265
O        -0.68598630120978       3.28758605073988       5.43033770554014
O        -0.10992244410441       2.74854384197018       7.78063636753826
F         2.88179516452217       2.77556536006174       2.71753744315269
F         2.39628499100049       3.94368753764914       4.46330294388761
F         0.90005098039781       3.55584871123629       2.95728727595823
F        -2.11061200410070       0.91670759137870       7.47197226595971
F        -0.72827405696360      -0.24875376876073       6.30700430726648
F        -2.18909157055789       0.99163320410474       5.32522650241701
