37
C9H17F2N3O4S2 optimized with DFTB in AMS.
N        -0.37708251478069       1.10775638159952       0.27837981260525
N        -1.76980451566941       0.14767069097659      -1.05270342361353
C         0.58638227243822       1.32861753104745       1.35188799724170
C        -2.64573148855749      -0.84530068356459      -1.66747340245363
C        -0.95315912105296      -0.05538609064044      -0.01894968061597
C         2.01013242456514       1.35986145072075       0.79490188253808
C        -4.01541518528047      -0.88029398590183      -0.97700820561092
C        -0.84655089542983       2.07402605215554      -0.56654069234739
C        -1.73126721598537       1.47067655882724      -1.40195127332284
C         2.42684674425873       0.01737189228710       0.19800585023537
C        -3.98334482519639      -1.65058672245299       0.33888685174990
H         0.46214394412763       0.52413872870593       2.08039573264860
H         0.33650087280718       2.27972600091339       1.82747001938613
H        -2.15048662783409      -1.81887576066630      -1.60820909781934
H        -2.75740098321862      -0.56742541106818      -2.71870038900198
H        -0.80023461270760      -0.98486545232406       0.50074737098989
H         2.08466790026987       2.14323313564757       0.03469614393995
H         2.68181189997581       1.62052521586314       1.61711165441411
H        -4.35066624338466       0.14503129549980      -0.80359472935032
H        -4.71693647445139      -1.35858979219321      -1.66645095778199
H        -0.54593650440388       3.10315155047430      -0.48298994259534
H        -2.34658719841108       1.87286733399352      -2.18723408421345
H         1.77367528042800      -0.25340280248357      -0.63301965316172
H         2.37498140805314      -0.76869162178649       0.95216171257828
H         3.44977470798892       0.07825767399813      -0.17189630710349
H        -3.28786003401050      -1.18911725152976       1.03812454658994
H        -3.68181949883465      -2.68610166499069       0.17344793051162
H        -4.97568183246480      -1.64208799970164       0.78793024565469
N        -3.28554088140275       1.28449277147394       1.33756556248730
S        -2.49430805809529       1.19779122081011       2.70745448003834
S        -3.92795321712371       2.67609602556438       0.91329146633397
F        -3.62687834663227       1.10207080881143       3.84479451105557
F        -2.63406829639336       3.66400110768933       0.75293121664522
O        -1.86058562090839      -0.09290848869992       2.72011343373951
O        -1.69845004683787       2.32993408659266       3.07005888852910
O        -4.76077131848525       3.33187099733041       1.86007018404279
O        -4.38341601465994       2.50661896532144      -0.43400807936342
