46
C12H19F6N3O4S2 optimized with ADF in AMS.
N         1.06411343195583      -2.34089690846115       1.57139755625332
N         2.54992817894140      -0.92920358999061       2.28392022808300
C        -1.18836986345141      -2.34022510938467       0.54832697647091
C        -1.08992973181482      -0.94656931097947      -0.06752081357621
C         0.15360825689496      -3.05689318254882       0.66615497843106
C        -2.44964303741229      -0.26842597528473      -0.23319333379148
C        -2.35510087248830       1.11112376243455      -0.88281511805822
C         2.03694163317832      -1.50580735351252       1.18960998268796
C         0.97264929200942      -2.31911845121412       2.94624022527926
C        -3.71196315616062       1.79833087966722      -1.01827231355513
C         1.91325536895988      -1.43929654596103       3.39578785086749
C         3.71933817861663      -0.05853374597916       2.30784253116477
H        -1.67138866324469      -2.28059610731510       1.54087559614864
H        -1.83703000840489      -2.97967127155871      -0.07626722631924
H        -0.59464175505208      -1.02027200608902      -1.05431558774827
H        -0.44628419920800      -0.30365751745790       0.56233141967540
H         0.67301241715022      -3.12858797826736      -0.29937523641505
H         0.06023277786304      -4.08105642119342       1.05215799716803
H        -3.10879982413832      -0.91385294657210      -0.84397475964716
H        -2.93659806141820      -0.17528481115114       0.75621574126405
H        -1.67515738176832       1.74725883914731      -0.28625557796965
H        -1.88934152037369       1.00890144341919      -1.88014447243562
H         2.39620793658688      -1.39301405384373       0.17431934473503
H         0.26758452095682      -2.94263733084762       3.48104113836436
H         2.20457814509448      -1.15857542997012       4.40031542994548
H        -4.18058173464699       1.94323718893491      -0.03131777243779
H        -3.61745469615265       2.78605532108156      -1.49433078416581
H        -4.40136902079914       1.19431084762412      -1.63014938269018
H         4.58931500007489      -0.65409756267980       2.61200671951337
H         3.88266562117983       0.33862318791055       1.30047554437527
H         3.53239532093518       0.76989497664556       3.00215598442915
N         4.66293582150416      -4.97838417510717       0.41277410382231
S         3.23752336885271      -4.79125530016846      -0.29148977242407
S         5.08734896091638      -4.22861544016610       1.75400193546082
C         3.57634229142765      -5.92716073119599      -1.75330726168041
C         4.34752443148037      -5.24119368966921       3.17456735078757
O         2.11404345338729      -5.40027001761321       0.42695683259174
O         2.99815337161453      -3.46966186567551      -0.89807677547413
O         4.46194900974216      -2.91347900011955       1.94962651732372
O         6.52023107180547      -4.37558553133035       1.94047877314021
F         2.42921308829072      -6.01073787515381      -2.47697356734267
F         3.92158302723502      -7.16499415811292      -1.34977534198534
F         4.54898175132714      -5.42946159105124      -2.54429191158913
F         4.97572433775846      -4.89513277893695       4.32890395119742
F         4.50341944455437      -6.56540040766173       2.97977316087418
F         3.02219962004014      -4.97661565184051       3.32959518005102
