49
C13H28F3NO3S optimized with ForceField in AMS.
N        -0.01280349990115      -0.01874075083843       0.00775384485121
C        -0.86156999089228       0.61277482622321       1.07973361921950
C        -0.85923675638280      -0.64559641718642      -1.06890664467033
C         0.83002501064192      -1.09633511693950       0.63827892785315
C         0.84024852153241       1.05360505517819      -0.61775000811425
C        -1.93449579623543      -0.30412690969730       1.72126934564603
C        -1.92588444815097       0.27586719176796      -1.71444249444756
C         1.90763839232732      -1.73406354459683      -0.27639025729066
C         1.90897697105725       1.69130636884299       0.30733311732289
C        -2.74284549899322       0.46054938548339       2.76751072654418
C        -2.73601481410847      -0.48639749740845      -2.76116111026508
C         2.72090944796032      -2.77457506312725       0.49035763000272
C         2.74721190781323       2.71293852448983      -0.45685764636080
H        -1.36616693273185       1.52545391938605       0.69160100854694
H        -0.21951202889788       0.96723203925206       1.91495113962405
H        -1.36983541231464      -1.55620322194117      -0.68372978980576
H        -0.21492273414389      -1.00225157528713      -1.90141578295397
H         0.18487498425973      -1.93292659382041       0.98375881311429
H         1.32886268492095      -0.71528820701736       1.55700654527895
H         0.20195001144778       1.89110440324671      -0.97356780687885
H         1.34783756652337       0.66681966238688      -1.52928112235839
H        -2.64684558842884      -0.68826534062033       0.96438512923227
H        -1.46105029352149      -1.16703105453376       2.23148619686778
H        -2.63834138209095       0.66464822681002      -0.96009827854402
H        -1.44674708636856       1.13558307856138      -2.22474202817122
H         1.43724906699287      -2.24718845392086      -1.13935294484320
H         2.61777999929039      -0.97549201842860      -0.66101115594460
H         1.42869076737153       2.22072286476284       1.15500882153563
H         2.60409193629795       0.93081192286360       0.71441714172449
H        -3.50120632615812      -0.21342068270639       3.21913932830360
H        -2.07646854674398       0.83393729673651       3.57426268023942
H        -3.26743151792802       1.32021863717591       2.29852888884962
H        -3.49163552591076       0.19004944181116      -3.21368822996647
H        -2.07027521304138      -0.86262662382607      -3.56708380550120
H        -3.26430173918900      -1.34393872203311      -2.29235177934442
H         3.48261270008886      -3.22228685671427      -0.18249408465471
H         3.24229108174059      -2.30101103519268       1.34949548204908
H         2.05881647251398      -3.58444861682650       0.86430252315680
H         3.50427594248705       3.15593825441594       0.22388893737017
H         3.27613799868550       2.22427898136503      -1.30275001763435
H         2.10238065193758       3.52830982991373      -0.84871421596866
S         5.56526805903918       5.12306986079403      -1.92877989847355
O         5.78591406511114       6.49734622078683      -2.57667151366049
O         4.38961182084666       4.54545758769029      -2.72952177667732
O         4.92953271463458       5.47388414938808      -0.57604731368215
C         7.03668418939045       4.06541983185454      -1.84186103892520
F         8.02152396023817       4.70565777022912      -1.11485797461040
F         7.49817251340810       3.81302899533963      -3.11920704674095
F         6.71083283007485       2.87273461770689      -1.22565857524421
