48
C12H22F6N2O4S2 optimized with ADF in AMS.
N        -1.01317886173593       0.32632644103277      -0.50373176346833
C        -1.15973721843056      -0.87280402787368      -1.42466315341252
C        -2.24014371374090       0.21935848385201       0.37398644577063
C         0.24373418798696       0.25581138432708       0.33793496038741
C        -2.65902176634613      -0.95687734637548      -1.72400609531270
C        -3.36650908794469      -0.19798238116330      -0.56867548926342
C        -1.04908609372785       1.60004326955780      -1.29675440103444
C         1.54144661347115       0.21981810046225      -0.44641845781202
C         2.72713025019242       0.05573305629877       0.50853848419525
C         4.05095559915080      -0.09365874246763      -0.24021663464692
C         5.24283712890730      -0.26892499564781       0.69444223049397
H        -0.81019944020323      -1.74086840232643      -0.84571519738622
H        -0.52232706283669      -0.72318204350554      -2.30675617976643
H        -2.39404302719618       1.17316419979833       0.89686532583443
H        -2.02385406997190      -0.56797434659339       1.11161447270287
H         0.13690947796999      -0.65363169049566       0.95221818072113
H         0.20762458445371       1.12943254371475       1.00938561394428
H        -2.97046270998323      -2.00929332684426      -1.77987524933475
H        -2.88731522330091      -0.49883634229321      -2.69563678152703
H        -3.91175476011421       0.67866927692050      -0.94688093180114
H        -4.09444489543082      -0.82513181968902      -0.03465410996611
H        -0.22661476959918       1.60506960680095      -2.01892956430465
H        -2.00061882491774       1.65623684660410      -1.83585200914059
H        -0.95206409972182       2.44341300577557      -0.60138676120844
H         1.53236237182604      -0.61596190378911      -1.16391747984266
H         1.66632414174365       1.13832925011797      -1.03872653816979
H         2.57098460351719      -0.83185792385400       1.15196021964718
H         2.78537800547863       0.92953709837462       1.18426112494602
H         4.20447164803022       0.79119117669471      -0.87632753393771
H         3.98002463893406      -0.95722372872559      -0.92589917609206
H         5.34804700100610       0.59872265145067       1.36540028699789
H         6.17820310616103      -0.36608945149472       0.12319860227300
H         5.13394263567275      -1.16935791551904       1.32050941937310
N         1.80669261842072       2.14885617673266      -5.14124804622894
S         1.02311653960373       0.77170383310126      -4.93037205922650
S         1.85347807492377       3.30645160703942      -4.02205019515553
C        -0.78651148856397       1.19372670244994      -5.45590308540662
C         3.45217868121384       2.88661812018441      -3.05873963747781
O         1.46064804303242      -0.18577201668812      -5.93110765867422
O         0.87426594760376       0.31558746624407      -3.53644994650697
O         0.80449830834370       3.23858968877122      -2.99703555066971
O         2.14727412767770       4.57471999281939      -4.66354804694836
F        -1.66909330232195       0.79122455713241      -4.48339260889142
F        -1.11142174084594       0.54256584066746      -6.59093845552384
F        -0.96922344007440       2.51547507275252      -5.64519999704142
F         3.29073652813574       3.20646548715441      -1.74214981426472
F         4.50355048953294       3.58367308866607      -3.53407493415797
F         3.74481880871790       1.56666461054789      -3.12906441978520
