61
C17H24F18NP optimized with DFTB in AMS.
N        -0.77532031294579       2.46626356725701      -1.32331657969058
C        -1.70377356617111       1.44973174200623      -1.92388844751525
C        -1.69751305410811       3.53224047039994      -0.80355751866065
C        -0.02435782840624       1.87441086115507      -0.16606199436219
C        -2.96364610298971       1.46545231679882      -1.06255738847352
C        -2.94202425524886       2.80331061917988      -0.31032316833820
C         0.13407868465730       3.01242869749425      -2.38662858498710
C         1.03473339339113       0.84015658828035      -0.54319411990445
C         1.06326485392298       4.10850679610393      -1.89222556433077
C         1.59635377531967       0.19982694721849       0.73246225806183
C         2.68104349963733      -0.82932316362323       0.39838344904992
C         3.24515516666397      -1.46932960250991       1.66513733759004
H        -1.92734996532288       1.76681535021077      -2.94196587819126
H        -1.21444183590449       0.47708715073713      -1.95535962014182
H        -1.19578205235900       4.10345224636796      -0.02273738825229
H        -1.93887755080794       4.19147311865125      -1.63509285976777
H         0.44532880644498       2.69977453846700       0.37418730214385
H        -0.77129791340022       1.41951658925894       0.48919131607999
H        -3.84311887587446       1.38711646704729      -1.70318958875246
H        -2.97193562901322       0.62637188254756      -0.36355795995888
H        -2.90010886986460       2.64160037863904       0.76913819713770
H        -3.82793476998985       3.39985299337426      -0.53334323154112
H        -0.51094744444212       3.41045124866187      -3.17108624829863
H         0.70026521971247       2.17251995989498      -2.79440208427689
H         1.85103658754284       1.31482008496245      -1.09343072004551
H         0.60730701261403       0.06005108787452      -1.17839830257485
H         0.49826989231704       4.95132063180825      -1.49862270105635
H         1.75378826875114       3.75068126503938      -1.12989415197579
H         1.64342749668453       4.45919308607811      -2.74505588617679
H         0.78444179043671      -0.28750507525403       1.28266839964033
H         2.01590239771698       0.98033212918383       1.37603512556495
H         2.25735937038686      -1.60610665671585      -0.24669862754137
H         3.48876974892340      -0.33829796178427      -0.15434590508748
H         4.01048699990955      -2.19935704753570       1.40264396011259
H         3.69295283653316      -0.71184608243243       2.30954480058884
H         2.45606306927177      -1.97691780115638       2.22126077577540
P        -3.27178720681386       4.77280314119615      -4.76633566929178
F        -2.08917529678322       4.35209690455938      -5.86229042199068
F        -3.98438913745362       5.85176609748955      -5.80194015092257
F        -2.58518157308793       3.63636580557411      -3.64454608378241
C        -4.27610080000867       3.30706655888533      -5.59774767448865
C        -1.97679301654258       6.17584712051863      -4.14952813111246
C        -4.55706377480411       5.24084135625856      -3.27077512752223
C        -3.76859411068386       1.85382986669959      -5.37633857132167
C        -2.40606632122623       7.63244075963541      -3.78405559355770
C        -5.71200297579743       4.37683780696417      -2.69057795670434
F        -4.27793543596381       3.50475626749767      -6.92375589035680
F        -5.56164250653367       3.32385126156671      -5.19609110452698
F        -1.06524475953324       6.34042176633374      -5.12065027224646
F        -1.28305201537738       5.72449553449473      -3.06669194236785
F        -5.08097900029225       6.45200930460281      -3.51466286383980
F        -3.72105824860250       5.38358879886931      -2.19965222365619
F        -4.39202462390379       1.00633611623487      -6.19036804114671
F        -4.00013758974907       1.44442780706448      -4.12017268101986
F        -2.45894658698105       1.73505961497177      -5.59002899876172
F        -1.32030698229799       8.41358292063216      -3.80885623627557
F        -3.28120005535334       8.12984465195603      -4.64637519354065
F        -2.91761826113666       7.71854145385466      -2.55968213430184
F        -6.83034116977218       4.46682279130405      -3.38842594222989
F        -5.98033870481401       4.77183769934236      -1.44039454580977
F        -5.34829525147681       3.08928936940703      -2.61110442596894
