37
C11H20F3NO2 optimized with ForceField in AMS.
N        -0.41331990992008       0.14872686592813      -0.07027480424165
C        -0.98933921661597      -0.91052559318780      -0.95563770271318
C        -1.46863406636098       0.41364798293754       0.95613225441876
C        -2.45396867857695      -1.08506354155112      -0.60129853658116
C        -2.52749674818261      -0.66563446988721       0.83987487318190
C         0.82519277359344      -0.36016088730506       0.60554656817790
C        -0.15512684234224       1.38635394289887      -0.87565962356993
C         2.00995878930621      -0.63234560223347      -0.35307505657832
C         0.47093457226188       2.54629475164373      -0.08059958210672
C         3.16003576043928      -1.32040793354773       0.37635220796336
H        -0.50084504704262      -1.90053450077518      -0.80315274721941
H        -0.88899698198648      -0.68075164485410      -2.04121828176578
H        -1.98343242099333       1.38818343015784       0.79014262433162
H        -1.07402397871071       0.44578747126983       1.99754196441076
H        -2.79128055749095      -2.13598625001775      -0.73727935163352
H        -3.07748652405981      -0.40728816729257      -1.22561330090309
H        -3.53896331771482      -0.28483415666029       1.10228062529304
H        -2.26685892093472      -1.52371539886588       1.49839172180956
H         0.58949730872711      -1.30154150802649       1.15498419166294
H         1.16753257575258       0.35555403131951       1.38550647951347
H         0.50740048306170       1.16527074344227      -1.74092552747374
H        -1.10705173744917       1.75438547128934      -1.32360197667380
H         1.69581181915733      -1.27576786692458      -1.20051429060209
H         2.39905028254700       0.31982958212961      -0.76886349892076
H        -0.12130133097638       2.79103094561743       0.82416417807982
H         1.51376472335022       2.31636240794794       0.21741900880024
H         0.50420622557808       3.44722582438831      -0.72661196153742
H         3.53007144488115      -0.67842342358494       1.20399345203314
H         2.82890961639058      -2.29725429990897       0.78808345094021
H         3.99493840994179      -1.50007386356615      -0.33355099409680
C        -1.55109106886124       6.68476420206959      -1.84896546282746
O        -1.89515735311870       5.51680451871525      -1.75738123619466
O        -2.27511262336793       7.48371228789037      -2.42073500224719
C        -0.24892276300842       7.14290389713274      -1.26381069573710
F         0.53725187343725       7.69181994323651      -2.25994172611887
F         0.42762242399315       6.08133298214734      -0.69008457419467
F        -0.49000945700463       8.09892758972716      -0.29470829437940
