28
C8H18ClN optimized with ForceField in AMS.
N         0.40810245160150       0.25215898679599       0.02499973218154
C        -0.57545847664590       1.27415135114817      -0.45583412329472
C        -0.08046596869826      -1.12567202244321      -0.29187184496954
C        -2.01845179887439       1.04280697583707       0.02811696294966
C        -1.50813387272699      -1.40435761956661       0.21223395519508
C         1.69074083971519       0.51920770670160      -0.70680865262331
C        -2.49039187786191      -0.36521473094194      -0.31757020413291
C         0.63234679192170       0.40985172368774       1.48811958708044
C         2.87731474220101      -0.38433983468086      -0.32695848508005
H        -0.60680966355791       1.28570852432919      -1.57062112756681
H        -0.26361266877180       2.29598250103622      -0.13911824708993
H         0.57902908475506      -1.89559573341565       0.16478605790311
H        -0.06581926761290      -1.29858013780888      -1.39258945129007
H        -2.68613963112699       1.77655045031222      -0.47340552759688
H        -2.10999847459696       1.22369728055185       1.11897398001288
H        -1.53440224415085      -1.42235960116343       1.32243136453184
H        -1.82555469242273      -2.41016952053093      -0.13894297147648
H         1.53901296413640       0.41391354197375      -1.80573686128467
H         2.01613979387580       1.57205915405825      -0.53903543221810
H        -3.49169808758193      -0.53918585725903       0.13237999483121
H        -2.58485233312563      -0.46815165978371      -1.42108140791809
H        -0.31024985576889       0.37501758609473       2.06755984008267
H         1.26360331871466      -0.40919867146848       1.89428582494429
H         1.12564429440802       1.38101464650043       1.71553444178990
H         3.75283437861922      -0.10545266762316      -0.95045807827584
H         3.17532979810819      -0.24119908221227       0.73106008197722
H         2.66078687273655      -1.45267224530015      -0.52508174598405
Cl        5.17809311163072      -2.63110624172891       1.24659103652163
