47
C15H28N2O2 optimized with ADF in AMS.
N         1.40765439853782       2.24284646977512       0.02890003276357
N        -0.75108096895825       2.33667674748158      -0.18708825743315
C         2.80753486032055       1.93127507840086      -0.26054233507806
C        -2.10684684251294       2.27746188612985      -0.75825788728966
C         3.14330008420138       0.50072241812492       0.15904007096596
C        -2.61489450540973       0.83811345597820      -0.82429336496643
C         2.28108148685058      -0.54704182239723      -0.53776020520057
C        -2.58459175083318       0.11939345459931       0.52356317014497
C         0.39893133541792       2.20022009088204      -0.85923529007225
C         0.86489286878194       2.39132773009834       1.29410744325419
C        -0.49628504727815       2.45729475139908       1.16646788638295
C         2.60829325968589      -1.97455713728620      -0.10482696322798
C        -3.28842063836163      -1.23453478153026       0.49807842395600
C         1.73210261837903      -3.00597277558427      -0.80915020759239
C        -3.22707331784281      -1.93357469382498       1.85408060720349
H         3.43467873314950       2.66531831846662       0.26796801696658
H         2.96119903064640       2.07186672998993      -1.34121925460850
H        -2.06611015856994       2.74231512266958      -1.75533996640852
H        -2.73016865267307       2.90603800284147      -0.07186371328459
H         3.02736514864601       0.40815896217305       1.25347883704760
H         4.21089815471024       0.32738111563395      -0.06296664949533
H        -3.65753532514019       0.89544708147680      -1.18643020634052
H        -2.04731382024689       0.25801176531235      -1.57869314901015
H         2.40532394034474      -0.45709741358878      -1.63459438518449
H         1.21521304062848      -0.35067009747637      -0.32241581602472
H        -3.03119543252993       0.76719014346054       1.29987848668186
H        -1.53511955823630      -0.03775728282413       0.83594640334426
H         0.50481654130028       2.07101358713081      -1.92902470883012
H         1.49187585514079       2.44404026555218       2.17566453441961
H        -1.36029947995491       2.55208263186938       1.90721622267783
H         2.47488402847791      -2.05697776555139       0.98894166201372
H         3.67412413301036      -2.18505359527783      -0.30632666495910
H        -4.34362831332738      -1.09070019864197       0.20272841569312
H        -2.83473591096232      -1.87774940428670      -0.27935143928389
H         1.87137204684032      -2.95874614955386      -1.90123155422068
H         0.66621195031347      -2.82346014906696      -0.59699237487394
H         1.97186874180545      -4.02849877540366      -0.48254691555953
H        -3.68983580922147      -1.30542778343313       2.63153566146638
H        -2.18138910685342      -2.11155001222068       2.15454935938035
H        -3.74746684794384      -2.90318306145734       1.83837457817294
C        -4.60927173387690       3.93728513345472       3.36098935444599
C        -3.49984528797487       3.46587246756551       2.41626501914378
O        -2.69880456712826       2.58883020744932       2.88684840603214
O        -3.47750291350454       3.95713627132390       1.25068570168175
H        -5.41520490427953       3.18548375131164       3.35904182615693
H        -4.23470639078443       4.01275634704863       4.39179701536212
H        -5.02847854938416       4.89627962000608       3.02826245538647
