22
C6H14ClN optimized with ADF in AMS.
N         0.64013302659464       0.25659877466779       0.15039389672733
C        -0.42849682376035       1.24684950692924      -0.23148699264677
C        -0.13343308217894      -0.80232512078582       0.92214457349242
C        -1.66014139285575       0.39952177034396      -0.57403547083423
C        -1.42980126659949      -0.96347108958447       0.13717013041080
C         1.71903363178200       0.84894784591003       1.00027790494037
C         1.27041545969686      -0.35834543864372      -1.07001737524754
H        -0.05890433644263       1.87793268021459      -1.05140581080963
H        -0.60177673014686       1.87359444635426       0.65600152782523
H        -0.31466564595828      -0.36943581211418       1.91743520549350
H         0.54064358634179      -1.68016323154974       1.02535639697521
H        -1.76348563540463       0.26850719068822      -1.66090877971148
H        -2.57018413200341       0.90424135549980      -0.21964887289162
H        -2.25452845083287      -1.21965856070837       0.81693902745521
H        -1.34862325481264      -1.78064996243407      -0.59469879773808
H         2.23769277006664       1.62057084877098       0.41618038885269
H         1.25159271051248       1.28870035609014       1.89093105461801
H         2.39280410625214       0.00469160765035       1.26785431742613
H         0.48298655436638      -0.78735845392766      -1.70027373242735
H         1.80160431738866       0.43550622042752      -1.61150732975779
H         1.96500506009323      -1.14247093878000      -0.69075801700134
Cl        2.76943942830105      -2.28047860181885       1.09230876094897
