34
C12H16F3NO2 optimized with DFTB in AMS.
N         2.49314972679966       0.15828239962484      -0.18512083525677
C         0.05865205631483       0.10021863183769       0.12945669041457
C        -1.29539180289357       0.10310839049887      -0.58507301175323
C         1.21249617412704       0.16524587074615      -0.87891595114051
C        -2.45274391969015       0.03937212057849       0.41691416453226
C        -3.80499799820055       0.04016929959724      -0.29390697213623
C         3.07696392430613      -1.03388020823336       0.17545432447200
C         3.03298500969501       1.33418110858133       0.28355081291961
C         4.17380881443305      -1.09708913135255       0.93992613870605
C         4.12695829097220       1.36563477687684       1.05330364861948
C         4.85675049411326       0.12435647021313       1.46151212779504
H         0.16044768086477      -0.80841511533244       0.73124733440739
H         0.12523714090384       0.95877673905493       0.80514215848436
H        -1.35070774629367      -0.75576779837921      -1.26283400079375
H        -1.38526153774109       1.01185137931099      -1.19024436234732
H         1.17797734476399      -0.69517401042058      -1.55382353816599
H         1.14522753088612       1.07927835636041      -1.47672098315862
H        -2.39564709575566       0.89918757674098       1.09287260341034
H        -2.35954974138860      -0.86860631824873       1.02218101558822
H        -3.92469042812540       0.94792287767495      -0.88686778776926
H        -4.61151486505406      -0.00563962649523       0.43801104962187
H        -3.88847067962478      -0.82140923391199      -0.95771361602964
H         2.58879031971414      -1.92790521519356      -0.19626832233867
H         2.50913287443496       2.23781943462405      -0.00753402510938
H         4.60996116262756      -2.05511969652210       1.18922708433525
H         4.53168750667712       2.30983805439104       1.39256904143803
H         4.97980878132576       0.07531558841248       2.55516270239867
C         6.90130001356785       0.12703025402699      -0.08690108595494
O         8.06992864227253       0.33492254041894      -0.22317048258462
O         6.28711597719601       0.21021422905872       1.06080654144450
C         6.07799702635588      -0.30278104155266      -1.36647305429909
F         5.68398292407719      -1.58108587501282      -1.29107720398577
F         6.84532315940176      -0.18469622383790      -2.44456006710118
F         4.98989068063676       0.45062923866405      -1.56419790046267
