31
C9H20ClN optimized with ForceField in AMS.
N         0.27075416205192      -0.12773740242108      -0.17242010503487
C        -0.59930974571676       0.69386859019190      -1.07504553815605
C        -0.48837630068195      -1.35299938804071       0.24333049786888
C        -1.96142586000148       1.06710237334913      -0.46615719986342
C        -1.86890867142460      -1.05816202169315       0.86657605870479
C         0.69504918521757       0.64202193938502       1.04934126109156
C         1.45710202232916      -0.55388020017820      -0.99300758044749
C        -2.72240605230585      -0.18784125632745      -0.05168087698369
C         1.54945956699412       1.89629864011692       0.78585326008107
C         2.54075206786702      -1.35359348484126      -0.24494614038517
H        -0.81027363989786       0.13370122562147      -2.01630024728051
H        -0.08606675746153       1.62250617452952      -1.39951801881765
H         0.08568333957274      -1.94230835393063       0.99043807008024
H        -0.65668321429130      -2.02256679827727      -0.63176700164922
H        -2.55965469550328       1.61076650957147      -1.22867823421315
H        -1.84274113053427       1.75373241282431       0.39732626431365
H        -1.76151022747412      -0.57400130811940       1.85946269794014
H        -2.39849940517897      -2.02043561213553       1.03653740025803
H        -0.17984892113423       0.97800828287612       1.63886973424291
H         1.25862843751346      -0.01452958761952       1.74707676082736
H         1.12607869398926      -1.18453003163823      -1.85020781760476
H         1.94880698773752       0.32634783304051      -1.46253766202050
H        -3.65696024518547       0.10275040090381       0.47516596382264
H        -3.00488734466480      -0.76829134404652      -0.95750337771893
H         1.81363745542444       2.35777500465626       1.76038836023338
H         2.50082418149309       1.65351998550575       0.27245529125791
H         0.99041961220877       2.66056941560897       0.21039933700046
H         3.33726748551475      -1.63294606446830      -0.96649373846739
H         3.02314486617878      -0.75203599838934       0.55116080553484
H         2.13934973156282      -2.29499332836736       0.17986025774059
Cl       -1.31426618729897       2.71799886881279      -4.05992634715567
