58
C16H22F18NP optimized with ADF in AMS.
N        -1.48461861159414      -0.72274272300161       1.51256931579825
C        -1.90186509433227      -2.10607921998592       1.04074761358729
C        -1.93460839041883      -0.73160774523491       2.96729436520260
C         0.01223976941246      -0.50637768759497       1.43188889146798
C        -3.26652948288713      -2.33794392899006       1.67911935277196
C        -3.25920417485642      -1.49780188390032       2.98205459992189
C        -2.21923335360703       0.32759895814684       0.74944420553375
C         0.62498923870476      -0.76562188059928       0.06843935054704
C         2.14558102616832      -0.59486313377553       0.14627102537948
C         2.84698525698836      -1.03626944994178      -1.13653166502591
C         4.36468257412052      -0.91774776379146      -1.03176186795723
H        -1.15952635948456      -2.79975024419217       1.44894919139488
H        -1.88753373824472      -2.13874218593583      -0.05526557383041
H        -1.98112016372693       0.30480919362100       3.32906535730743
H        -1.16134013968423      -1.28683550961410       3.51458167462686
H         0.44881724682381      -1.19205979968057       2.16861343583638
H         0.19153215707398       0.52759508981710       1.77007111299444
H        -3.39167053584565      -3.40801269090762       1.88639058126305
H        -4.08302265941867      -2.02628963346466       1.01021931536163
H        -4.12457176009614      -0.82054989615367       3.02682709572129
H        -3.28834023807756      -2.14344172185720       3.87038813312806
H        -1.95731502540451       0.24712045921051      -0.31147075001201
H        -3.29702303570882       0.17723921610706       0.87734187676384
H        -1.93042547406909       1.31342178648150       1.13523868178859
H         0.40972255857758      -1.80133975482499      -0.24023084186566
H         0.21613022723804      -0.08841222879446      -0.70169952530595
H         2.53085614551588      -1.19606902098843       0.98788973096675
H         2.39433898975430       0.46072011227138       0.36363459003437
H         2.47826277503986      -0.43484504344563      -1.98773294733598
H         2.57225895368236      -2.08559966731415      -1.34736842284614
H         4.66814030113204       0.12358069435916      -0.83791513214686
H         4.85638562841943      -1.24693757530693      -1.95920353261495
H         4.74611406124997      -1.53959300034316      -0.20619141098745
P         0.16352243174579      -4.92408760639537       3.71227860623706
F         0.67459919302246      -4.35322845955454       5.18397799271095
F        -0.89946217518391      -3.60690855233025       3.49981428913709
F         1.20739563674393      -6.20026689829865       3.82175697179708
C         1.57799662935510      -3.72800943864811       3.01800393369170
C        -1.30515049515654      -5.85810504929736       4.76487024765357
C        -0.47088099326639      -5.73829222310905       1.95334749963803
C         3.07457845068969      -4.11307685672905       3.20343445518193
C        -2.79955558512771      -6.05316501220601       4.32449953759513
C         0.27082971061881      -5.77784691855586       0.57303062084019
F         1.46741952694605      -2.48550640954838       3.63526019814559
F         1.42065965252789      -3.46510322312032       1.66397524347975
F        -1.47201741820837      -5.12499061495782       5.92616027800160
F        -0.87235083468968      -7.10903804213009       5.13191331964906
F        -1.72406635867627      -5.22853247741135       1.61987882885780
F        -0.64483707894631      -7.06922867607253       2.25181583804114
F         3.85480171511153      -3.08839509206708       2.72535942964950
F         3.40610287586614      -5.22212010591097       2.51262386643107
F         3.38138827589138      -4.29112617676485       4.50159138046969
F        -3.49471723258990      -6.54533683029825       5.38848929105003
F        -3.37552825377988      -4.86184664004374       3.98634547486977
F        -2.98392411755573      -6.91513313330667       3.30566922461104
F         0.09371279223103      -4.62461534809349      -0.13855637986849
F        -0.25784023689354      -6.77401673364077      -0.18842204296929
F         1.58990268667943      -6.01329877328459       0.70385562512977
