29
C9H17ClN2 optimized with DFTB in AMS.
N         0.14742038351539      -1.43158502166590       0.09433954809312
N        -1.83018195921437      -0.59796134829389       0.15717852123702
C         1.54234838766624      -1.67771769125825       0.45350825301150
C         2.47144625466938      -0.82729211411825      -0.41581017341412
C         2.23520807272316       0.67235613721346      -0.20708735578402
C        -0.67264977236580      -0.67408330036014       0.81281951574062
C        -0.48864637780554      -1.84454056785628      -1.04578260316201
C        -1.74092826392650      -1.31670476328318      -1.00665830127173
C        -2.97063600411402       0.19458445356477       0.60411150215632
C         3.23174316279771       1.50575730856375      -1.00795353487038
C        -2.61220134556350       1.67663229396401       0.58802795960023
H         1.65256950557418      -1.40580668263489       1.50828747596286
H         1.74847089136295      -2.74253743865242       0.31655252502597
H         2.32940046673690      -1.08757874548402      -1.47063376289959
H         3.49895266504236      -1.08115172345555      -0.13922369593582
H         1.21575166499469       0.92570361887826      -0.51821164198002
H         2.32652171155469       0.90730732387263       0.85766390360420
H        -0.37255570179276      -0.19797575125484       1.75910529808455
H        -0.01210094699653      -2.47410508273264      -1.77669990782714
H        -3.80875552643837      -0.01479804857608      -0.06537835279421
H        -3.23365823519197      -0.12700799015140       1.61643315229882
H        -2.56290597103506      -1.39715836048985      -1.69648508091209
H         3.15227488808487       1.28593987902079      -2.07432755614552
H         4.25221190132197       1.29613001612617      -0.68478174015401
H         3.03181938205439       2.56644580498010      -0.85588143723578
H        -1.78935096276521       1.87572142893186       1.27332879468872
H        -3.47873155086832       2.25827152728767       0.89916244723435
H        -2.31844853602606       1.98506940173847      -0.41487568446557
Cl        0.97270526820515       0.40473523002565       3.06650019971374
