26
C8H15ClN2 optimized with DFTB in AMS.
N        -0.67512418753644      -0.99311236676909       0.37539388144643
N         1.43894569020957      -0.57584401160069       0.27731151324368
C        -2.11161221527823      -0.85413955361370       0.59821198454682
C        -2.77541835315856       0.04837902312377      -0.45618043406628
C         0.24986345825436      -0.05363110476762       0.58553681063161
C        -0.07252192658230      -2.09331640876806      -0.18245045543681
C         2.70066642283277       0.15853292111576       0.28641353010714
C         1.25587445038924      -1.83039123803717      -0.24572998776717
C        -2.95870387086389       1.48052829508216       0.03972288442335
C         3.19126793996494       0.40188944239586      -1.13616401796663
H        -2.26018649177036      -0.45580826165225       1.60718820969836
H        -2.53269807234229      -1.86229907481373       0.56027465257643
H        -2.16538507871408       0.05340556757414      -1.36260461622905
H        -3.75217845678006      -0.37944603701253      -0.70126697345718
H         0.08855373156344       0.88576900618362       1.08063236024389
H        -0.63115997872654      -2.96729802884547      -0.46696025995377
H         2.51956292216451       1.10734823507692       0.79713567228735
H         3.42892749242087      -0.42392008038116       0.86085374942672
H         2.07442398836802      -2.43040206543141      -0.60195156005201
H        -1.99209232037274       1.94519397417319       0.22712727122591
H        -3.55017980464291       1.49988504914919       0.95689214973888
H        -3.47495591725713       2.06251096789597      -0.72307885388352
H         3.40273143376401      -0.54226013601072      -1.63684926415889
H         4.10358499606357       0.99601440458432      -1.09877269611784
H         2.43123422788580       0.94322090860918      -1.69853000272630
Cl        0.05577953754441       1.49815232263952      -1.46029975658112
