40
C10H19F2N3O4S2 optimized with DFTB in AMS.
N         0.80482312739337      -0.64239338852002       0.53722062148590
N        -1.13129541687487       0.25862406962976       0.84962072732453
C         2.11528459081758      -1.22044473172688       0.85157654133782
C         3.18735406208928      -0.89083432219643      -0.18499690541243
C        -2.28111069619164       0.81610854494280       1.56997561113935
C        -0.04047456371514      -0.19634128875660       1.46278573131472
C         3.45313939461262       0.61252389822904      -0.30579214189982
C         0.24180192676485      -0.46958543204793      -0.69665958630824
C        -0.97925492106266       0.09717427892112      -0.50007728871858
C        -3.05703632524308       1.85611585458241       0.76425390067322
C         4.66626661128528       0.89081663987511      -1.18808507389646
C        -2.22434457284789       3.08843970783355       0.42121695237417
H         2.40225229489831      -0.82686556882386       1.83025098179114
H         1.98553648269503      -2.30570972931199       0.92814524162160
H         2.91003880989653      -1.30980561774223      -1.15784845435151
H         4.09960354115089      -1.39989967061685       0.14324140761141
H        -1.89030846228210       1.26013702800421       2.49051721964254
H        -2.93894112188902      -0.01935426764672       1.83362656959285
H         0.12350465423511      -0.20544118824050       2.52639700852939
H         2.57697834376842       1.10442401635011      -0.73293926647942
H         3.61830842357073       1.03347655129634       0.68985653082829
H         0.73922930171027      -0.75037401452069      -1.60743888393584
H        -1.72868515573111       0.39335063437281      -1.21148941087336
H        -3.45645801863731       1.40161667214136      -0.14783420792788
H        -3.90896215288133       2.15243613600820       1.38414942423859
H         4.51118201353714       0.49992665174836      -2.19528797551972
H         5.56185904382689       0.42808360309559      -0.77003322932092
H         4.82757686744785       1.96637017156093      -1.25223546381238
H        -1.41317168896011       2.83080690039322      -0.25716145875627
H        -1.79407382391952       3.52140212165717       1.32372203526884
H        -2.85600470545579       3.83448093214071      -0.05955912081170
N         0.56447688331364       3.44909742778463       2.14546413413068
S         1.36284497478729       3.65433427525695       0.78749391101274
S         1.07248170068757       2.30667431381592       3.11688631775405
F         0.84159464466031       2.33775482073130      -0.07718074222309
F         1.88052320919024       3.12191689471177       4.24171492237513
O         0.77795634507497       4.75021647606943       0.09581943344970
O         2.77901811511198       3.49758506079740       0.80418289827126
O         2.02073655899480       1.35043536897389       2.61157995051306
O        -0.06674419692936       1.78173078392661       3.81845825226665
