29
C9H12F3NO3S optimized with DFTB in AMS.
N        -0.36621393454722      -0.32071053473280       0.18780595390038
C         0.97927297488628      -0.02307359728425      -0.31912304827321
C         2.03745725518720      -0.74069958943537       0.52679148932471
C         3.43395145712702      -0.45728393493248      -0.01602150858194
C        -0.98881544876150       0.56239543376611       0.98545315262393
C        -0.90401911483409      -1.52753670570806      -0.07044505698000
C        -2.24076355270273       0.27074020404713       1.50163108729027
C        -2.13659704759182      -1.86650873320778       0.43570494361308
C        -2.82113360317892      -0.95644020581775       1.23664580056829
H         1.02697621881862      -0.35010918021614      -1.36214840590809
H         1.12420648898096       1.05897930381620      -0.27938774106291
H         1.84050384634118      -1.81598569105222       0.51431469775541
H         1.96047691182418      -0.39426422498512       1.55988325005593
H         3.53075784563034      -0.80839719191326      -1.04464203902164
H         4.17127176641897      -0.97198392076804       0.59869417588936
H         3.64623206206363       0.61213391412285       0.00994521300585
H        -0.50201501682749       1.51407788157371       1.14782752383784
H        -0.32331910022702      -2.20073689714932      -0.68890437372275
H        -2.71980146184697       0.98622845054447       2.15600920273195
H        -2.54839923099982      -2.84419115255109       0.22195789175287
H        -3.78078035193301      -1.21445381191690       1.66591678308560
S        -0.18743592082816      -0.64663063196409       3.96871901418899
O         0.35415548056400       0.23117053661295       2.92283018865964
O        -1.60923186634741      -0.89213214924816       3.82274163432504
O         0.28301649398224      -0.36675751653809       5.29533844848141
C         0.57991645305077      -2.27746715047932       3.51297081742001
F         1.90738817259589      -2.19544830703092       3.47059185243832
F         0.17041708502402      -2.62940098853001       2.27710770173074
F         0.24392552623087      -3.25482831102224       4.33949192017091
