38
C10H19F6N2P optimized with DFTB in AMS.
N         0.34763986764991      -1.82424074659468      -0.00007441401682
N        -1.72811766126135      -1.27347622785020       0.12289492967960
C         1.74307092254248      -2.00040315638044       0.39029311265148
C         2.59609419039338      -0.80241281133953      -0.03302303159213
C        -2.97371407232353      -0.75274943875051       0.67706019424709
C        -0.55015865843936      -1.16714001436941       0.72686100969856
C         2.21021288424351       0.48092699549116       0.70998231512866
C        -0.26697872262623      -2.34750362413985      -1.10659267926886
C        -1.57935854363810      -1.99904073307826      -1.02854941664416
C        -3.20692125232089       0.69775579812282       0.24760418590120
C         3.19346879272195       1.61034067254779       0.41098374903996
C        -2.14654598651196       1.64649024361590       0.80183534762747
H         1.76341496159648      -2.12117360215111       1.47716766575566
H         2.10681893335594      -2.91464182917696      -0.08438202402576
H         2.50774064589168      -0.65349626466706      -1.11394826081940
H         3.63739483747706      -1.05331535308632       0.18924795139337
H        -2.89722486747950      -0.82755529714221       1.76542375633853
H        -3.78702891894351      -1.39133982442441       0.32471282820364
H        -0.36272369395911      -0.66651451121810       1.65825202259778
H         1.20465634819091       0.78962464959997       0.40542937085992
H         2.19045122752696       0.28484818894794       1.78643239897870
H         0.26630176909936      -2.92537202883558      -1.84096537128248
H        -2.40613287832867      -2.21670094251605      -1.68177157518761
H        -3.22909101308114       0.75541933565431      -0.84531116773346
H        -4.19111891521365       0.99154660788889       0.62275688250630
H         3.21574399736860       1.82715905840903      -0.65800592366747
H         4.19911513185341       1.33673803604816       0.73184149932431
H         2.89240407077443       2.51228598137809       0.94320591290921
H        -1.17258987351998       1.43670131798505       0.35778681006028
H        -2.06714506390015       1.53846649791064       1.88347045744486
H        -2.41619608735619       2.67613947372507       0.56927361774558
P        -0.67760744979407      -1.53657310125993       4.13314951367677
F        -0.01319385423564      -2.86006463857897       4.80058759700842
F         0.74805175042174      -1.26019809173826       3.27036342880864
F        -1.21208629316826      -2.45615265099794       2.83329890229641
F        -1.33582670334625      -0.18787616813157       3.35678448948592
F        -2.09551183421868      -1.78503873024704       4.89040989736865
F        -0.13493176834157      -0.58083473365043       5.32703954130119
