60
C18H39NO2 optimized with DFTB in AMS.
N        -0.33393858833717      -0.04407753780480      -0.20113896848360
C         0.44799732098483      -1.00668484240307       0.64575918318913
C        -1.35172543401676       0.64615921027709       0.68212703755753
C        -1.04838717165538      -0.80569218326038      -1.30014867827599
C         0.55285209506689       0.98520621787822      -0.84012224998610
C         1.40188659514523      -0.37838654344336       1.66199737554312
C        -1.99650985304067       1.89983153396015       0.09791428742765
C        -1.70689883683406      -2.11528876475415      -0.87720723204831
C         1.76485199768282       0.44435735994456      -1.59933779697801
C         2.06750014855028      -1.49413338467674       2.47849753824283
C        -3.08481185955917       2.38156166027577       1.06789108747683
C        -2.50225987424222      -2.66770273732661      -2.06825270614702
C         2.54884307663177       1.62252038555700      -2.19256600052424
C         3.03966013306759      -0.91797558315262       3.50553065088441
C        -3.88002630475607       3.53276915734909       0.45811900352227
C        -3.32613705832603      -3.88251078915435      -1.64878042153901
C         3.77289340656443       1.13472681121664      -2.96433302264123
H         1.00678745669132      -1.65712817208087      -0.03163106798585
H        -0.28786606279324      -1.61168491688758       1.17949633289022
H        -0.85171373530261       0.90081669719910       1.61881606645912
H        -2.14009114705891      -0.08846213563672       0.88045873077260
H        -0.31764559587664      -1.00420260835167      -2.08655695002740
H        -1.82471049654124      -0.13662168331043      -1.68618558788631
H         0.88455954046570       1.66374399623822      -0.05017115635347
H        -0.07719232228654       1.54368972788438      -1.53534520205866
H         0.86354893659540       0.28605656924499       2.34228615935184
H         2.17800693591985       0.20846876148312       1.16501907622067
H        -2.46151213820101       1.67025005976960      -0.86409293924384
H        -1.26141920013406       2.69901659299016      -0.04234812978323
H        -2.39638962119333      -1.93832009677452      -0.04774109443410
H        -0.96214499363074      -2.85597857966428      -0.56814311283421
H         1.45129165645098      -0.21700697337166      -2.41075609024433
H         2.42437332058291      -0.12443866636156      -0.93977451251118
H         2.60532413947328      -2.16777602012855       1.80295327059298
H         1.29677188838068      -2.07817780493315       2.99174413525939
H        -2.62317940001955       2.70352943376857       2.00861326587036
H        -3.76046259969347       1.54960725028009       1.28597575590540
H        -1.81430780885455      -2.94293950366210      -2.87608287667490
H        -3.17331041366979      -1.88864526682783      -2.44112776859951
H         2.86738675305878       2.29071013092723      -1.38543188488489
H         1.89693211375430       2.19226604240913      -2.86264143023851
H         2.51652532871560      -0.25845044129994       4.19901785525176
H         3.82691094505085      -0.34821267746229       3.00993955638732
H         3.49993763780780      -1.72601360684253       4.07389600346051
H        -4.36722015154390       3.20676386474206      -0.46142100202946
H        -3.22698833770354       4.37679459255225       0.22697930693559
H        -4.64618612086767       3.86689461289056       1.15829209668775
H        -4.03795898039428      -3.60108661877270      -0.87190019248808
H        -2.68191848590400      -4.67455528930949      -1.26179466961019
H        -3.88004770138618      -4.27020424570150      -2.50409067442157
H         3.47233184560660       0.48219831365249      -3.78495870335642
H         4.44415370361340       0.58059130853528      -2.30681009882959
H         4.31410103122490       1.98600442291870      -3.37693835092364
C        -6.06339829975020      -0.29300231884360      -0.85556686500208
C        -4.52704137827172      -0.23844677164745      -0.67421277871682
O        -3.87112082374048       0.17454326343652      -1.65602258013051
O        -4.07822140070774      -0.60347846741620       0.43429595298242
H        -6.44451537290385       0.72732480215169      -0.89404633519309
H        -6.30062965122094      -0.78735615819275      -1.79648890152771
H        -6.52669684246853      -0.82345861187723      -0.02580400695859
