40
C10H22F6NP optimized with DFTB in AMS.
N        -0.60697249074093       0.44122066769330      -0.21536499779235
C        -1.65853236862579       0.99887001721853      -1.13752131237101
C        -0.89437047816784      -0.99824619961006       0.07511984082668
C         0.71387351071279       0.55850248595323      -0.93749612551577
C        -3.07701164768102       0.78887285445691      -0.62944198289988
C        -2.30368800043764      -1.22994348640423       0.60976117292589
C        -3.35140840491190      -0.68847460645368      -0.36081865417631
C        -0.55519285710854       1.24781903197569       1.03409708439411
C         1.91015952622363      -0.06567185647693      -0.22713702687958
C         3.18341583229568       0.30921967387740      -0.99946113739564
C         4.42442740080258      -0.28375306975940      -0.33752487627063
H        -1.52834142123414       0.50495441456482      -2.10312132024111
H        -1.45208025497546       2.06181896753198      -1.25716181646211
H        -0.15674208072393      -1.34532802022110       0.80133063229995
H        -0.75544378395578      -1.54413313506025      -0.86238831723013
H         0.88900535819538       1.62442797801882      -1.08186420778288
H         0.58078586052549       0.09737593721357      -1.91855752790024
H        -3.75280680751127       1.16082920083925      -1.40327343713957
H        -3.25634129441040       1.37521627115951       0.27566887424803
H        -2.42059877479063      -0.76081614698758       1.59064886969149
H        -2.43200393378056      -2.30794650144713       0.73912466719716
H        -4.34902871227645      -0.81351373713529       0.06637112768788
H        -3.30800675015117      -1.25041940602465      -1.29930125058862
H        -1.53225607390652       1.25300348552865       1.50933109732522
H         0.17547983181022       0.81508322096443       1.71338490679844
H        -0.26901804744216       2.26428473083899       0.77053053788120
H         1.81908768515920      -1.15567845218160      -0.18870349683687
H         1.99333485605559       0.30534591253465       0.79807395174947
H         3.27301400459511       1.39885800232064      -1.03881301968152
H         3.10393084064222      -0.05847015355646      -2.02722546024077
H         4.36025994048112      -1.37244093120490      -0.30495834211676
H         4.53032698814530       0.08938065931293       0.68201116838671
H         5.31273307848412      -0.00455908803918      -0.90352048887608
P         0.02541740794966       4.04733009384473      -2.46377230719280
F         0.09451488139689       3.51493335252471      -0.84320721173323
F        -1.62288949309779       3.92871757238390      -2.36324208715005
F        -0.02449788945752       5.58296042907669      -1.93916766598003
F        -0.06152442810960       4.50121227809055      -4.01778140177009
F         1.66105648932909       4.05517956096988      -2.48751264010246
F         0.05809994519298       2.42790797476870      -2.93282493178575
