40
C10H22F6NP optimized with ADF in AMS.
N        -0.10317283640056       0.24632253070660      -0.08429375679211
C        -1.41865858676055      -0.24058635234439      -0.65022349840056
C        -0.53451205651534       0.87135440157854       1.23395083909896
C        -2.18949382321269      -0.79881063015760       0.54931348084445
C        -1.57971376783609      -0.09070064862660       1.78860038266198
C         0.53261128894642       1.26866040773170      -0.99698639022885
C         0.83018593146570      -0.92192938931600       0.19903911677421
C         1.84221237768066       1.83520396971097      -0.48019582869160
C         1.38833699971479      -1.62509913975655      -1.02463025950975
C         2.36406379527108       2.91302019913885      -1.42752575707932
C         2.32490246906096      -2.74418283448907      -0.56063876509199
H        -1.91796732637354       0.64552982002844      -1.07125384332174
H        -1.22563802619028      -0.96049166439072      -1.45541899354208
H         0.33855789682614       1.01364619994272       1.88454480378538
H        -0.97764360139129       1.84420652203559       0.96739911800630
H        -3.26258219027414      -0.58832482630581       0.43280780308456
H        -2.07703292613607      -1.89030751672427       0.62119179924214
H        -1.10403450510150      -0.80752069092181       2.47279063387128
H        -2.33368011351580       0.46296035291296       2.36564022066278
H         0.65900897105326       0.78205558854865      -1.97711180204385
H        -0.21909624442629       2.06692286524666      -1.11252117204019
H         1.64131314665491      -0.52950360907767       0.82551021314083
H         0.26113682608436      -1.62357921329476       0.82375286334819
H         1.70718323402134       2.25426817402833       0.52852716781616
H         2.59414334406504       1.03970814361780      -0.37118130777262
H         1.96107190896115      -0.91866451299271      -1.64746207953010
H         0.58743161062780      -2.04936119804265      -1.65553859455576
H         2.55856630055365       2.50933289008684      -2.43396447714753
H         1.65024739667054       3.74683596726544      -1.52346984260494
H         3.30831978589574       3.32325410027537      -1.04067681621769
H         3.13277496719018      -2.33555262851945       0.06461439512029
H         1.78317531485429      -3.49167075971510       0.03896204639920
H         2.77300519683467      -3.25786151654974      -1.42364970310051
P         2.93594884433866       0.30228523154216       3.39356610892887
F         2.10092804734846       1.64672184553310       2.81130878322804
F         4.28258842641155       1.21391845833820       3.56124043034482
F         2.43929971178250       0.65523107699997       4.91228755812816
F         3.71383727656987      -1.04548164718543       3.89947444567695
F         1.53462528989979      -0.60004307692314       3.14945727102806
F         3.37668399855065      -0.04668194933542       1.80291366927957
