26
C8H15ClN2 optimized with ADF in AMS.
N        -0.62930744095044      -1.03038283906619       0.40303864210314
N         1.51778359671973      -0.64955062802179       0.30010956642022
C        -2.07069532162905      -0.84675535977922       0.60670009912902
C        -2.81500628249991      -0.11407912658392      -0.50983426449266
C         0.29979093628924      -0.05764035471577       0.23850000963554
C         0.00664754478106      -2.25959176334117       0.36229505519521
C         2.80860550413339       0.04447913683425       0.32849526602360
C         1.34457294998108      -2.02210046273212       0.29853927276611
C        -2.70249096208130       1.40766907284469      -0.45373409593666
C         3.09543885001352       0.88891599135643      -0.90198542272534
H        -2.20816743418334      -0.32764177297270       1.57211961798365
H        -2.47185268925830      -1.86384643711144       0.72545963034146
H        -2.43980585851710      -0.47412645083642      -1.48292007615371
H        -3.87432048156237      -0.41249377693454      -0.41434536758362
H         0.12097673789369       0.99517154013458       0.40430481077159
H        -0.54719140397241      -3.18856989367620       0.38641163591017
H         2.83503856075508       0.65607806304969       1.24631231450807
H         3.56589552237069      -0.74494901784743       0.44672564281574
H         2.18355042066157      -2.70412943158407       0.25342609059097
H        -1.69594019057874       1.72657434732626      -0.76597905031826
H        -2.93870180127239       1.79252951148019       0.55271937097357
H        -3.40717642410329       1.86519345278443      -1.16486158258245
H         3.04771827962590       0.28201569784706      -1.81583140822235
H         4.09900791020096       1.32897007021339      -0.79308802215605
H         2.35532164671722       1.69064406709260      -1.02650497309787
Cl        0.09161988066550       0.55964724733941      -2.24116727879910
