39
C11H19F3N2O3S optimized with ADF in AMS.
N        -0.78058684080110      -1.54623845913509       0.19227801838878
N        -2.49517485380773      -0.26743383092394      -0.16391630594405
C         0.34826848946462      -2.18741002978276       0.87504186884456
C         1.66473420960284      -1.47226432296401       0.58921536856158
C        -3.62976030059050       0.63225258113785       0.09978762905953
C        -1.58634014138240      -0.63388336565531       0.74917312686845
C         1.71394722507851      -0.03204281921994       1.09554059821838
C        -1.18655837615620      -1.77118052082418      -1.10670568450273
C        -2.27050809168705      -0.97236093457378      -1.32867668452582
C        -3.81508240943141       1.65242500850840      -1.01489230754877
C         3.06795843873118       0.62193197697728       0.83001319133359
C        -2.58566878251356       2.52585825317159      -1.24975217333770
H         0.08685253025831      -2.19561296949259       1.94388689860502
H         0.37149907063486      -3.23420365035868       0.53799724630616
H         1.87104349902287      -1.49132909498457      -0.49693585615869
H         2.46481452277127      -2.06182840491289       1.07046877952718
H        -3.42364845269981       1.11318828512390       1.06452582504415
H        -4.51910670297351      -0.00066546738683       0.24372166721064
H        -1.60095929676164      -0.32658481761639       1.79031641848050
H         0.92168777894099       0.56188183271881       0.60637919332027
H         1.49581312738326      -0.01916870260022       2.17874879111732
H        -0.69226831233786      -2.49329503273953      -1.74389071095053
H        -2.91095314968537      -0.87260459997330      -2.19453816832272
H        -4.10996932288294       1.14364366698446      -1.94933602235237
H        -4.67946214744735       2.27465723811775      -0.72817088340122
H         3.28612319511816       0.64909961235282      -0.24984362848494
H         3.87863106553788       0.06077493904436       1.32136070452342
H         3.09568202717023       1.65492142161469       1.20627514242904
H        -1.71381614445567       1.92103969494900      -1.54469637578605
H        -2.31682741440112       3.08367578386721      -0.33894949221786
H        -2.77031996686621       3.25580096238933      -2.05114839428534
S        -3.30668601767954      -1.99150880580800       3.21878330566017
O        -3.43152043072179      -0.55700640636549       2.85386173498489
O        -3.94776036511945      -2.39182705376887       4.46675332991479
O        -1.96226343051908      -2.54821338485348       2.94415816564685
C        -4.36522993369708      -2.83829748894285       1.90106647219270
F        -3.75109963418951      -2.82815816312110       0.66733427541089
F        -5.56488220976421      -2.20910426035670       1.74055551442092
F        -4.61027956804290      -4.13337389289694       2.21164006034900
