38
C10H20F3NO3S optimized with ADF in AMS.
C         3.33380103068059      -1.57311167399419       1.25943584751053
C         3.05959250399566      -0.19653884961276       0.65179505893051
H         1.44133422217794      -1.61098327372703      -0.96978185102920
H         0.11089612825430      -1.69851071154562       0.22076828199385
H         2.32491117437808      -3.35249099723425       0.39584595041240
H         1.56936818963551      -2.73737558208508       1.87189062335154
H         3.49905995986629      -1.49678393036281       2.34366061937225
H         4.24800733269648      -1.99981488910778       0.82412363187172
H         3.40033249421304       0.65716385626822       1.25656045617610
H         3.46085244042873      -0.09972339955522      -0.36692917619729
H        -0.14594805150184       0.06121779984498       1.78290497893734
C         0.93801087117415       0.21042195160180       1.84357913384680
H         1.36937893689808      -0.45761326425801       2.59742339499214
H         1.17783797227960       1.25607548498665       2.08426353779955
C         1.18770585544063       0.92772968933252      -0.53933480547348
H         1.86232114252293       1.77677136560158      -0.34750558036041
H         1.45986756948165       0.46882406237299      -1.50365741779620
H        -0.45149685442435       1.95806775787810       0.40159489880715
H        -3.48976849811072       0.40409612976506      -1.32387189330334
C        -1.35289082870568       0.42240287583691      -0.86852433312658
H        -1.07962036193080      -0.16169654493711      -1.76720154339333
H        -1.47687025295440      -0.30679614762073      -0.04849348221412
C        -2.69005702532326       1.12503354555355      -1.09891145072622
H        -2.61935069456413       1.83055984420789      -1.94193000549205
N         1.54438732524289      -0.12063670581923       0.51109005564793
C         1.18703714855139      -1.53224626271550       0.09725694250606
C         2.08044633634631      -2.43318721299701       0.94691092215792
H        -2.98916217234001       1.70064763766493      -0.20908847291618
C        -0.24541103734994       1.42404069182664      -0.54087611194118
H        -0.24967201556350       2.21873020461870      -1.31011491719113
S         2.92269878630073       3.31037450732938       1.58143292749766
O         1.44787747481854       3.43438839965271       1.54210871637835
O         3.55855941429817       3.14878630322370       0.25849224257734
O         3.42110684968932       2.38055115906825       2.61933133996682
C         3.49081632472686       5.00273136167463       2.16562262923324
F         2.90809933096361       5.32729374555951       3.34970979267123
F         3.15865959120227       5.95872895267862       1.25864247811995
F         4.83810692000489       5.03563539342498       2.33813940450233
