50
C12H28F2N2O4S2 optimized with ADF in AMS.
N        -0.27481278883838       0.13246956028662       0.46068267535326
C        -1.54030837640847       0.69570830298248       1.09471846810000
C        -0.59219258732243      -0.64678386452680      -0.80009508548194
C         0.39584938845354      -0.80153529576596       1.46366281694391
C         0.64203511948001       1.29818889619493       0.10720515921916
C        -2.63083862158731      -0.31177224403472       1.41310479662739
C        -1.40333020794919       0.08925920988407      -1.85512257669446
C         1.74478629003179      -1.36054144457929       1.04423580022405
C         1.22088066710122       2.05862670848505       1.28620655805046
C        -3.79863525914547       0.42335096625279       2.07511319918059
C        -1.59346317307838      -0.80751889377208      -3.07943102419378
C         2.25920334526423      -2.29651887481475       2.14121128429537
C         1.99391008519484       3.27752802646798       0.78520333531464
H        -1.91175882683063       1.46660426385029       0.40226433778937
H        -1.22541715087530       1.19276549009924       2.02152110976228
H        -1.12010129078391      -1.55619210364263      -0.47642051228403
H         0.37544476168938      -0.95414016774907      -1.21970139676443
H        -0.31726590035785      -1.62051268691376       1.62816248532396
H         0.48712856214735      -0.24101769543433       2.40414325280578
H         0.03868336419714       1.97063082087596      -0.51985895237560
H         1.44292275873621       0.87861563774687      -0.52162917851708
H        -2.98253606103137      -0.82926262026465       0.50484299037068
H        -2.25497263103912      -1.07027273804412       2.11686702984903
H        -2.38902396763768       0.37427118764458      -1.45588679881439
H        -0.89166835297478       1.01466262935605      -2.16272174686922
H         1.67198755715755      -1.91781872482663       0.09562363323560
H         2.47130789667833      -0.54546533698497       0.90059183896936
H         0.43092912538049       2.39051774242871       1.97561913817121
H         1.88903275846719       1.41833524346039       1.87805202698191
H        -4.60638630272109      -0.28073673183320       2.31876714954699
H        -3.47167203347034       0.90725581576287       3.00683648178486
H        -4.21019994779817       1.19975047169397       1.41058224941378
H        -2.18711816825221      -0.29062101948249      -3.84657582580186
H        -0.62559576637454      -1.08018162340105      -3.52844657728697
H        -2.12013472474101      -1.73787940980906      -2.81564937181564
H         3.23673702433464      -2.71337109939158       1.86044504776735
H         2.36964030512212      -1.75241167737588       3.09012839446143
H         1.56503051222068      -3.13675397688276       2.30147756263027
H         2.43943582566815       3.80411451542179       1.64102924931625
H         2.80866785005487       2.99173644599599       0.10040284150144
H         1.33387282159320       3.98497879177373       0.25814319515172
N         0.32143186484849       1.31170971939612       5.93082785701778
S        -1.03058361361203       1.27066430139398       5.09116466893960
S         1.73885868390155       1.36939496597433       5.18076053074985
F        -1.03620055270862      -0.27965706810202       4.41846766477835
F         1.75301319451986       2.88275350537782       4.49392584137131
O        -2.16085842710894       1.25495443366403       5.99112070176110
O        -1.06671825656838       2.10963695486294       3.89260911259012
O         1.86386830648239       0.48837967189528       4.02126771930752
O         2.78721281899040       1.40717729880294       6.17195050204165
