28
C10H15NO2 optimized with ForceField in AMS.
N        -0.49378145452426       0.01014127512291      -0.38293906551195
C         0.92719336593502       0.00329579442714      -0.75263415124310
C         1.80289714709195      -0.05810662102027       0.50228432755708
C         3.28497012826869      -0.05952466356238       0.13980495103864
C        -1.14593653534375       1.20059995275351      -0.20999496876352
C        -1.15548237257834      -1.17479467198822      -0.20762207794385
C        -2.49867786762781       1.22399976790605       0.13892334378269
C        -2.50865245927913      -1.18676823527986       0.14045248022449
C        -3.18204719240485       0.02152824036466       0.31262358851437
H         1.14657716400467      -0.86851516864091      -1.40918790638066
H         1.17722673258597       0.91610358627673      -1.33872906312939
H         1.56902869378217      -0.98158362109946       1.07506268451294
H         1.58789429402957       0.82023150465099       1.14887675260423
H         3.52426378264383      -0.93238784043241      -0.50392196488979
H         3.89500388033376      -0.12729826159072       1.06422098564039
H         3.55127541244934       0.87693507017627      -0.39519498221663
H        -0.62114976100449       2.14010406464263      -0.33747594124631
H        -0.63834639942820      -2.11853475463107      -0.33560513653926
H        -3.01153153357579       2.16735620099139       0.27418179595038
H        -3.02963102952943      -2.12568917053547       0.27595457847277
H        -4.23033209396556       0.02607284648304       0.58234515759388
C         4.35469334429939       3.79481898941852       1.58718338195641
C         3.57621497369611       2.92295334533508       2.52100429271591
O         4.04529120276919       1.86122007953509       2.89634648715906
O         2.47329446990494       3.26965578625474       2.91222918285041
H         5.32850593643357       4.06005387597487       2.05012764926149
H         4.53828677410475       3.25236334964979       0.63607256838022
H         3.79672048382870       4.72991356921734       1.36599794034910
