47
C15H25F3N2O2 optimized with ForceField in AMS.
N         1.36362449954369       2.27436376265721       0.04633795885820
N        -0.83927534278094       2.43636291484455      -0.21816386074561
C         2.74364657455295       1.85996747061570      -0.19788597219567
C        -2.17190943399672       2.23985647029057      -0.78767093550838
C         3.01021746909394       0.46120945531836       0.37804272840761
C        -2.41235154094910       0.76042229862644      -1.12703529820310
C         2.08441186676941      -0.59935707387518      -0.23909287323313
C        -2.35535189363240      -0.13102055753055       0.12310540095400
C         0.33822713543536       2.18438813649104      -0.82283894381637
C         0.81880934758330       2.60426701742706       1.23449563063466
C        -0.54636348699346       2.71260780735609       1.06893838465792
C         2.43736322586946      -2.00696646635050       0.25132555443417
C        -2.55763596904063      -1.60653051171729      -0.23732361269098
C         1.46165429254984      -3.04018363559175      -0.30689308539533
C        -2.48385070406312      -2.49064149386296       1.00537975479472
H         3.43606156116819       2.59399490164518       0.26772339933241
H         2.94895951600742       1.85159520076582      -1.28949880927360
H        -2.26801255809603       2.85157640337603      -1.71046470899835
H        -2.94961243646738       2.58543505073320      -0.07150351248668
H         2.87019604814249       0.48374087735277       1.48082624958120
H         4.06957957027789       0.19356594244322       0.17131622106677
H        -3.41334050641341       0.66352477231276      -1.60122102137375
H        -1.65269023526985       0.42273382661238      -1.86561163620806
H         2.16635908229709      -0.56449990149368      -1.34804135358163
H         1.03322658364054      -0.37858972376256       0.04484689833577
H        -3.14485580899537       0.18865434820333       0.83845558253094
H        -1.36648879843906      -0.01914917944873       0.61761861425940
H         0.43847682038681       1.85720288962522      -1.85034864464553
H         1.36354938040983       2.69389291613349       2.16504284338597
H        -1.27445785083361       2.90255165034449       1.84649933782508
H         2.39691751224074      -2.03912879892139       1.36214208317767
H         3.46752700835922      -2.26972054049284      -0.07385331553466
H        -3.54988652993499      -1.74364113830779      -0.71966572534603
H        -1.77022384570623      -1.92731255970790      -0.95405969509362
H         1.49019375473349      -3.04035324607087      -1.41742115118724
H         0.42865299959432      -2.81431050579505       0.02972768248217
H         1.73798009379265      -4.05161658616472       0.05794084036300
H        -3.30830915059176      -2.23937207706893       1.70600032230262
H        -1.51131791414909      -2.35258804661569       1.52459228159747
H        -2.57932963754610      -3.55681684675670       0.71017298341524
C         3.02485072843014       4.59681614822658      -5.14083364086140
O         2.09852951270158       4.92099044146129      -4.41494095849711
O         3.26136186371121       5.24955781734660      -6.14439219595132
C         3.87158662363804       3.40621710032230      -4.80748772894238
F         3.81086640387520       2.49170231134600      -5.84247670681780
F         3.42254658684135       2.80312208234060      -3.64683780736391
F         5.18250593025309       3.80758865141680      -4.62937955774536
