55
C15H20F18NP optimized with DFTB in AMS.
N         1.04211006468062      -0.34865083527442      -0.18986096477823
C        -0.02695639462558       0.70556026976845      -0.17921083733657
C         0.39023112756398      -1.70524613205493      -0.16919661026829
C        -0.98958978888701       0.57639406344883       0.99587853945234
C        -0.57916929534088      -1.88247229701002       0.99188055112970
C         1.96515641804327      -0.22495814652795       0.99306114494015
C         1.78617593986082      -0.18458854547102      -1.49411171929719
C        -1.65312311439384      -0.79889015931385       0.99385220996618
C         2.77648007246977       1.05805965450963       1.04920132553659
C         2.94207462873642      -1.14568763948878      -1.71730278260640
H        -0.57961960117982       0.60179549733054      -1.11730179420624
H         0.46473074914602       1.68004938670434      -0.17230134629258
H         1.18200860462072      -2.45127334853955      -0.10902579386914
H        -0.13790299331187      -1.81802382943262      -1.12003633724431
H        -1.74434827656803       1.35961927361635       0.88587993274950
H        -0.46940891328323       0.74667000260225       1.94171346117703
H        -0.04173560336410      -1.88266772903414       1.94244831661026
H        -1.03838305321491      -2.86680684403275       0.87672896755136
H         1.35576809140094      -0.31283813343568       1.89254620786822
H         2.63272499976249      -1.08380948832952       0.95808641187478
H         1.04299136533185      -0.31384245869256      -2.28569311379464
H         2.14172451663905       0.84803577517648      -1.52686644083720
H        -2.28530216030814      -0.90522447366601       1.87801051899805
H        -2.28662463582118      -0.89911279473325       0.10642684181186
H         3.37505287852759       1.01372483165152       1.95886055013423
H         3.45741372391477       1.14745145371174       0.20491001900478
H         2.14631372722919       1.94513350409324       1.09707809772345
H         3.36525924126336      -0.91999270941280      -2.69621128388482
H         3.72363206987172      -1.02468177935314      -0.97142150774517
H         2.61220756200523      -2.18135395497683      -1.71670232138812
P         3.74329142259923      -4.43452459990038       1.17097721433890
F         5.02871283770885      -4.58014007465097       0.11015378829563
F         3.35061707649250      -2.91326610626397       0.44577347577905
F         4.06384737751278      -5.89328846575214       1.90346773971954
C         2.64711346986956      -5.34563070458665      -0.17782412574744
C         5.03232097368569      -3.54972734050859       2.35435763308051
C         2.15592629083022      -4.09207580562935       2.36055786622229
C         3.37141789490530      -6.14364401725675      -1.29567721928394
C         5.49801214322284      -2.11622566674323       1.98509650820173
C         1.79103520557447      -4.98929243806715       3.57197889294051
F         1.84678244041421      -4.46842791915081      -0.83752021370789
F         1.83845517856096      -6.21477691948518       0.45073737443031
F         6.13682932267870      -4.30879038649153       2.39864925568639
F         4.55913809761120      -3.47196827458032       3.61245408124543
F         1.04111222249274      -4.08970992848946       1.58481616434505
F         2.25626543874893      -2.81998472272618       2.82488874224217
F         2.48022133060330      -6.87301215131861      -1.97478027999762
F         4.28766428492575      -6.96886051977334      -0.81096962909707
F         3.95071191378843      -5.31551906702579      -2.16414974829116
F         6.54363285228682      -1.75164277080210       2.72327646891314
F         5.84207335432312      -2.00089135079232       0.70594478980167
F         4.51918037675939      -1.22477347764586       2.21833005304102
F         0.78029268897465      -4.43176696107847       4.25219347341984
F         2.80335803717589      -5.15339208641687       4.41222241293919
F         1.39030600098513      -6.18615644119751       3.15885974680314
