37
C11H20F3NO2 optimized with DFTB in AMS.
N         0.36600266427671      -0.02904161188111       0.51714018072357
C        -0.35912010308604       1.28961932899168       0.49181777708666
C        -0.33722404020457      -1.00513869117514      -0.37181137116807
C         1.75617247324486       0.24163639552707      -0.01077447151691
C        -1.83188945186622       1.16751841637918       0.85378519820186
C        -1.81270329463236      -1.16924046319868      -0.02120464474010
C        -2.53961493612143       0.17345383341846      -0.06473842247132
C         0.46154537321632      -0.53791760388106       1.91264604134178
C         2.67856759707856      -0.97385727424855      -0.06817456959762
C         3.98931369653784      -0.57259649728289      -0.74473765110371
H        -0.25751372803131       1.68629793419425      -0.52195760240770
H         0.15729339807573       1.95150350879769       1.19123788520408
H         0.17382398042907      -1.96559982400560      -0.28538215132882
H        -0.23384941146498      -0.63788720888807      -1.39697388974439
H         2.18442794059444       1.00458077779112       0.64714218801993
H         1.63196311168255       0.66388584069180      -1.01185158705162
H        -2.27717410897278       2.15941615670817       0.74289957188093
H        -1.95095709436889       0.86706318319325       1.89776599797334
H        -1.91987456394274      -1.62290518068326       0.96771877817296
H        -2.24923993180414      -1.85619935674044      -0.75111243596729
H        -3.57609341918730       0.04179138422938       0.25435682828606
H        -2.54374081853317       0.55588383280633      -1.09065370185832
H         0.95983702881657      -1.50374036856905       1.90929677730076
H         1.04190180305672       0.18546192876745       2.48555847948312
H        -0.53303945617237      -0.63957723186971       2.33701071671889
H         2.89300599118928      -1.33404957383914       0.94069067225197
H         2.21821227549289      -1.78896723075133      -0.63463158760827
H         3.80597081443182      -0.22795105589220      -1.76346524428050
H         4.47574933104088       0.22495221531760      -0.18524603349115
H         4.65824137380323      -1.43170392851899      -0.78106201157293
C         2.69590260570340       2.32351946599583       3.20072697394760
O         1.75222152518688       2.13264655949421       2.41648208463506
O         2.91368805124169       3.12663936890433       4.07360168335374
C         3.86764426284688       1.20029632031411       2.94892214356228
F         4.83634281976487       1.13123057092059       3.86108035059669
F         4.46624594252836       1.38370134282183       1.74464664068349
F         3.31202124644876      -0.04896561753909       2.87554664748390
