48
C12H22F6N2O4S2 optimized with ADF in AMS.
N         1.09704524104161      -0.05759280161825      -0.43612412541753
C        -0.39165910949157       0.18353218760391      -0.57417044430418
C         1.33298973504378      -1.50157738154076      -0.00483635872680
C         1.70257465665639       0.16185526359690      -1.81430520778975
C        -1.16776008430278      -0.14114897630979       0.68881664396357
C         0.53688039156394      -1.89545502562837       1.22971116998969
C         1.73189985838282       0.87462488518698       0.59187032078818
C        -0.95436136769604      -1.60253370649048       1.08322602578223
C         3.19849042785078      -0.06009315162564      -1.93163290042237
C         1.45347312495492       2.34695735651965       0.38681047940691
C         3.64596423728696       0.21170434379888      -3.36762822347447
H        -0.72210330192041      -0.47013386473633      -1.39781506208542
H        -0.52035059472487       1.22608379425016      -0.89515509267013
H         2.41211399556514      -1.60477726627561       0.17943236285460
H         1.04213092168620      -2.11414079089791      -0.87441589263274
H         1.43842980833256       1.19144596930244      -2.10167293239780
H         1.15520569212941      -0.52084640872492      -2.48483335627368
H        -2.23138595241343       0.06473486644129       0.48299029616287
H        -0.87027879387792       0.53105072829266       1.51112583781302
H         0.96179114220422      -1.40395430909190       2.11849054206093
H         0.71534838578968      -2.97248667455187       1.38278724035437
H         1.38836692473967       0.53976857279115       1.57654294645823
H         2.80538808595731       0.66456593185298       0.55207735317176
H        -1.48452126892502      -1.82973592150209       2.02117876095431
H        -1.39104028510500      -2.25230134419088       0.30202299791161
H         3.74504081409024       0.60680654672057      -1.25467203277731
H         3.46881963168503      -1.08710377538905      -1.64420864137596
H         2.03764045762442       2.88728325945891       1.14666641810334
H         1.78982489594977       2.71611988365166      -0.59245620220897
H         0.39565505667908       2.60971828411831       0.53254407101593
H         4.73040311497456       0.05751578178177      -3.45667586925020
H         3.14718119184965      -0.46037477022276      -4.08354974270077
H         3.43105438322086       1.25073211563251      -3.66373884320390
N         4.85973216024799       0.74313617826224       2.54119006158390
S         6.23618301733026       1.45292910900624       2.06193721710861
S         4.47924290326423      -0.78096305102912       2.23988758471433
C         5.89734424499370       2.02727126530416       0.28364361139414
C         5.72758535330971      -1.92490307781204       3.11626420213582
O         6.33593838882815       2.71302999038097       2.77883094107032
O         7.37928085123541       0.56073881393798       1.92949291963881
O         4.56152060926589      -1.18188799866652       0.82434013689527
O         3.21715743201458      -1.04702194560463       2.93547985003897
F         6.76362420272152       3.01008737739807      -0.05140574611737
F         4.62768673405037       2.53147328480707       0.15890456563726
F         6.02857462582298       1.02439000811552      -0.61820343187681
F         5.09340574096296      -3.09574749138702       3.38846752378686
F         6.14634171505780      -1.38018054860119       4.27676638554833
F         6.79018616769250      -2.19311700051583       2.33725457626198
