37
C9H17F2N3O4S2 optimized with DFTB in AMS.
N         0.55509534482874       0.95874715623125       0.43849834476362
N        -1.29234760316766       0.64661901393144      -0.62181692187386
C         1.68490586242761       0.76368505612013       1.33805789780067
C        -2.56630770977665       0.07384322336151      -1.04175562773041
C        -0.41320570720966       0.07491560773175       0.20120389737135
C         2.98684751293070       0.63215148679701       0.54643083525596
C        -3.65429556922948       0.33853069433161       0.00703917205804
C         0.27823217530773       2.12089430151929      -0.22480645158647
C        -0.88924112858278       1.92510954609806      -0.88986732984532
C         2.98793409498550      -0.60043214104941      -0.35540519466089
C        -3.51576273162541      -0.55317009035800       1.23674495769988
H         1.49283682050005      -0.13475839847038       1.93001740770357
H         1.72477199920913       1.63060648467698       2.00278110253727
H        -2.42456394152169      -0.99926857707229      -1.20197148017698
H        -2.83465308993688       0.54351916210355      -1.99122526021328
H        -0.46740577288345      -0.92409750983235       0.59614799874234
H         3.13457885957979       1.53259412512415      -0.05657837570246
H         3.80935091571083       0.56589856876227       1.26355010695443
H        -3.61169232473662       1.38806399155338       0.30702355131175
H        -4.62009491712991       0.15626165731321      -0.47294410366409
H         0.89572162837899       2.99664251842017      -0.13624723461730
H        -1.46952765647008       2.59640534737092      -1.49739228057936
H         2.17734667621939      -0.54326385213036      -1.08330692030689
H         2.86117207825890      -1.50805400182209       0.23620354554437
H         3.93307452081320      -0.66476098737579      -0.89331993980626
H        -2.58344476084956      -0.34276145793182       1.75945744693436
H        -3.53662053285951      -1.60809264191453       0.95747393819073
H        -4.34024207388112      -0.35498188132715       1.92058308311485
N        -2.05439035108131       4.28700057054164       2.49583799474148
S        -1.28932852296458       2.95393134882962       2.85265429485769
S        -2.16204898711112       4.68345479043479       0.96254152820756
F         0.28035686810998       3.22896996773635       2.40921296986115
F        -3.06405106074097       3.47982500511503       0.28957641935004
O        -1.22542155936732       2.82271302679009       4.26731623550701
O        -1.62411903069377       1.78864012827246       2.07532731214171
O        -0.94720851862505       4.62329843307977       0.20124369157305
O        -2.98317520171598       5.83755351833776       0.85522698504066
