38
C12H22N2O2 optimized with ADF in AMS.
N         1.00492670396007       0.58894809561426      -0.32543032943832
N         1.60844134773554       2.56757621516567       0.31316111529457
C        -0.64714678410638      -1.25717285448006      -0.49177669466567
C        -1.88264124469742      -0.41268259170178      -0.19165008899946
C         0.45948015073008      -0.47175706422931      -1.18346458590401
C        -2.94319631474788      -1.18883027308366       0.58366891476046
C        -4.21394553475935      -0.37839811270912       0.83117597071988
C         1.07550827309842       1.87372431038203      -0.70787985605509
C         1.44238552553758       0.46896773209501       0.98254410588651
C        -5.26409430006079      -1.15303656906718       1.62387682511647
C         1.81163780109965       1.71839884607083       1.38584106757323
C         1.60424136646126       4.02188835441504       0.35849215883958
H        -0.26282586067115      -1.72058108790611       0.43613494369749
H        -0.91342361859677      -2.09652770211691      -1.15935907856929
H        -2.30450850538739      -0.05269188323488      -1.14722093215194
H        -1.59713715297132       0.49768357530449       0.36416240098874
H         0.05984266175012       0.04810117872219      -2.06886419217121
H         1.29157841376445      -1.12561915027769      -1.49128050684586
H        -3.20398521682740      -2.11488394739739       0.03501698242389
H        -2.52391297632147      -1.51337622898503       1.55585725529906
H        -3.94857661923836       0.55203665997341       1.36408204942716
H        -4.63563621332213      -0.06613707543104      -0.14098173041060
H         0.57144110267720       2.24408220799998      -1.63811881581418
H         1.46262772934873      -0.47667774231492       1.50758298206603
H         2.20053495889351       2.07255674452685       2.33259025591050
H        -4.87635864681129      -1.44503005086551       2.61352636906799
H        -6.17390031186633      -0.55312395833565       1.78137624118636
H        -5.55653909251467      -2.07507150789606       1.09564210943036
H         2.28549320750628       4.36024907820172       1.14816882047202
H         1.94636943915917       4.41037392021624      -0.60818942467719
H         0.56869531472104       4.34694463157976       0.53926109361870
C        -3.11470973625028       3.11516975034140      -1.80098958284800
C        -1.65089763238945       2.77543632678812      -1.50715082274788
O        -1.25401785783412       2.95478830835928      -0.31707146576702
O        -0.94484952242598       2.34989562193359      -2.48302446199297
H        -3.75449659898826       2.77139871227561      -0.97568324875298
H        -3.21577104740288       4.21107008444998      -1.85423341415698
H        -3.44871780275204       2.68721046871686      -2.75577877571033
