64
C18H26F18NP optimized with ADF in AMS.
N         1.98654931150036      -1.52661918046235      -0.09877186500315
C         2.33060577258111      -1.47615259098780      -1.58529633292977
C         3.34920247938394      -1.41843763084949       0.57169008748345
C         1.14133469280482      -0.32943226533330       0.28676461710115
C         1.30786444203636      -2.83861905710742       0.23112594672429
C         3.60291505366902      -0.62402664094238      -1.70650365963250
C         4.10576433732272      -0.39617424273949      -0.26182481365373
C        -0.30171341871292      -0.37520384012766      -0.18781689459807
C         1.00003885288824      -3.03864203454465       1.70349211733965
C        -0.99696842716062       0.96563768144219       0.06502850176445
C         0.35420952773328      -4.41179792298137       1.91874204553939
C        -2.45796862657804       0.94647557190375      -0.37659247109130
C         0.11367756368246      -4.71009402236982       3.39544353882877
H         1.46170307672856      -1.08396391810460      -2.12740903382018
H         2.51845763539039      -2.51159250536707      -1.89303921698500
H         3.80964039501031      -2.41114043102892       0.48965572559895
H         3.21155107278726      -1.14820392909508       1.62587007688575
H         1.18210649076689      -0.25561570624831       1.38368875307479
H         1.65366870210923       0.55064398015277      -0.12929210797524
H         0.39924808520671      -2.88806418865983      -0.38642339275588
H         1.99346295117770      -3.61701796332920      -0.12272334430499
H         4.34592813732985      -1.18684624226056      -2.28791367360361
H         3.41506342719970       0.32892393401763      -2.22158380862775
H         3.89870590371178       0.63027813513190       0.07832023656146
H         5.18751870311126      -0.56660113968147      -0.17297269041507
H        -0.35531293313393      -0.60673047448692      -1.26526916699989
H        -0.85405831813384      -1.17073952820272       0.33899595596021
H         1.93262512128543      -2.99288912608239       2.29011684665340
H         0.32462588110326      -2.25363156737395       2.08770650860729
H        -0.45540236920209       1.76463806493645      -0.47234050163493
H        -0.93600333680191       1.21404621729544       1.13966988703534
H        -0.59911318330444      -4.45854983263173       1.36308243296908
H         1.00839092218119      -5.18504831955087       1.48602311853786
H        -3.02638412943870       0.17741030197412       0.16942595406191
H        -2.54259736437482       0.72752833840964      -1.45274006449026
H        -2.94014302387934       1.91769198187768      -0.19108048773538
H        -0.55994767608947      -3.96762731134509       3.85230724567276
H         1.06219974025079      -4.70073282483207       3.95478358423502
H        -0.33934647830734      -5.70413935821429       3.52516178843664
P         4.82982703651272      -5.31652807676187      -1.41261577481875
F         4.76537203660777      -5.09917271512487      -3.05968267587448
F         4.31417560386953      -3.69760492702106      -1.20985907086471
F         5.33608106628515      -6.89039893926254      -1.51214488229003
C         2.93946853817988      -5.91986539987851      -1.65138331676888
C         6.74001250960247      -4.78411793500176      -1.56373490236607
C         4.82045873485516      -5.35442158695874       0.60260027541407
C         2.68051899125266      -7.20342814555254      -2.51634837643571
C         7.11021312007012      -3.27653896571614      -1.69207339342304
C         5.04711547738604      -6.69987215635602       1.34412255958487
F         2.22616681507433      -4.90409207345132      -2.28127345137241
F         2.24316274861377      -6.18900101435357      -0.48687750173598
F         7.24008428859652      -5.35908921620294      -2.71031511594766
F         7.50608317890772      -5.27995538570839      -0.53399704562654
F         3.61372703405050      -4.86372341777555       1.09933329011889
F         5.76040283849675      -4.47698448388937       1.09991500871575
F         1.32822917241718      -7.32169934639030      -2.70205692264440
F         3.09632485155886      -8.31405269175947      -1.86964593756709
F         3.25444811469292      -7.16124097620151      -3.73264069695158
F         8.44825344764964      -3.14377995211207      -1.89052318456366
F         6.47920784855900      -2.69565489821827      -2.74484147147160
F         6.79955963793493      -2.56635035528904      -0.57256748820243
F         4.92303001774072      -6.50506215532442       2.69308437184030
F         6.27973400945534      -7.19243632152033       1.11261761529365
F         4.12664575599516      -7.62041393867014       0.97787673434257
