32
C8H16F3NO3S optimized with ADF in AMS.
N         1.04932401325648       0.10642866468870       0.21971351753574
C         0.77141137686016      -1.35826370840611      -0.06468631322049
C         0.57677243174485       0.24457523251739       1.65858697537337
C        -0.57939447743900      -1.63269782550710       0.59402672646479
C        -0.69995008026505      -0.59190213368591       1.73953789171206
C         2.52502602808275       0.45583603067467       0.11427536853893
C         0.23329223802497       0.97201026134893      -0.67996872125218
C         3.17144465499730       0.00431612198900      -1.17874081670478
H         1.59429593595456      -1.92057623002385       0.41050039589290
H         0.79336727856430      -1.51938850821780      -1.14998266664878
H         0.45628584573798       1.31189861445314       1.88981303619965
H         1.38194348837359      -0.19126810005479       2.27313093165443
H        -0.59657218775837      -2.66311016998359       0.97280123941597
H        -1.40911185414578      -1.52788715419682      -0.12119698652127
H        -1.60416084896479       0.02469948186355       1.62299861090025
H        -0.75236956998678      -1.07650146940829       2.72413853003271
H         2.57644511694117       1.54848616059924       0.24422487570733
H         3.00507495709537      -0.03066188241643       0.97797065503239
H         0.55161175430243       0.81020981308386      -1.71625053109934
H        -0.82517337981432       0.70739127386623      -0.57402783104466
H         0.38709383966157       2.02101062934932      -0.39639831284438
H         4.20453600665709       0.38200220068446      -1.18354979668250
H         3.23216813703166      -1.09225492247695      -1.22201601270766
H         2.67592065693734       0.39556608986743      -2.08007393010585
S         3.59023796762886      -2.39217566980115       2.43672400855115
O         3.15005952833001      -1.04210506070868       2.87670125271358
O         4.86278890191156      -2.86181911749614       2.97219837268343
O         3.34508510779908      -2.64241722500233       0.99512041297836
C         2.31329968018982      -3.50394497776281       3.26153310778454
F         1.03385827953243      -3.12881910414335       2.90092752604201
F         2.38118395717369      -3.43267031300801       4.61324905754269
F         2.46349012628509      -4.80104368648584       2.89693740327560
