36
C10H17F3N2O3S optimized with DFTB in AMS.
N        -0.29962946185354       1.06302529086661      -0.54461087648888
N        -1.53029385908143      -0.38676280198648      -1.55165959263849
C         0.45339339317069       1.74426627035955       0.50187486227661
C        -2.38129282055632      -1.54410510966918      -1.80739186358652
C        -0.88719312908981      -0.12336231189391      -0.41565862400524
C         1.95631086938940       1.57593070710613       0.28269692735793
C        -3.81870914205233      -1.28965784432157      -1.33051216272458
C        -0.60083849768696       1.58564050330516      -1.77058859947877
C        -1.38099757094812       0.67326630481814      -2.40561349430880
C         2.39717442985402       0.11743889889975       0.39262792473322
C        -3.98973022626936      -1.53436885238236       0.16547542380683
H         0.13607218340942       1.32308657645929       1.45874822464569
H         0.16944305100535       2.79889473750175       0.47322774517170
H        -1.94333851463370      -2.40749372939191      -1.29777809576835
H        -2.36388117820455      -1.72418085057319      -2.88571462190260
H        -0.85686939547331      -0.74802940482332       0.45878849696027
H         2.22620992292742       1.97071019710085      -0.70169536028238
H         2.47227489946787       2.17280134891018       1.03955274570572
H        -4.09294209903551      -0.25857254737819      -1.56704783494290
H        -4.47592199601788      -1.96018262136960      -1.89215196770855
H        -0.25943400552113       2.55903251843203      -2.07510115155396
H        -1.84162708829450       0.69237800430055      -3.37732563191006
H         1.90627842631598      -0.49064407412606      -0.36891782224321
H         2.14506701959926      -0.28468965471519       1.37454886901975
H         3.47515478569007       0.04344809490324       0.25228660250148
H        -3.35778785469554      -0.85953489118868       0.74015740914889
H        -3.73389842993577      -2.56423725575488       0.42048100079397
H        -5.02650709181812      -1.35052453352041       0.44479110531475
S        -2.87074557186362       2.08868930329538       0.77161861937964
O        -3.38168337262784       1.69091453526659      -0.53123743446521
O        -2.05600042572700       3.28841585627092       0.76036281277564
O        -2.29047803343674       0.98513721103696       1.53754960852079
C        -4.38912779462608       2.52974827639700       1.73041011575856
F        -5.19916953299416       1.47551913760232       1.79905591028941
F        -5.04839285099111       3.52261124704771       1.14670557021563
F        -4.08226054109507       2.89943431961483       2.96786576213202
