31
C9H20ClN optimized with ForceField in AMS.
N        -0.41666760850722       0.17636400111794      -0.07105008419565
C        -0.99276279492132      -0.87365836946692      -0.96744018206808
C        -1.47491066707539       0.43290636979235       0.95404739777025
C        -2.45793308140772      -1.04939761103742      -0.61513265747976
C        -2.52493042873418      -0.65443289891009       0.83322444007594
C         0.81688284930250      -0.33983171232507       0.60756207277199
C        -0.15310089934037       1.41988316807196      -0.86537724349283
C         1.99896801339753      -0.63856589793111      -0.34583360475865
C         0.45153312932818       2.58155108592007      -0.05565859066176
C         3.13599318209031      -1.33569973310225       0.39711162717872
H        -0.50761811807227      -1.86649203118274      -0.82249025827919
H        -0.89073863114950      -0.63267107950872      -2.05066001531730
H        -1.99762241101846       1.40306490141465       0.78710955281768
H        -1.08101647565913       0.46645640985990       1.99587570818697
H        -2.80084362221723      -2.09596899795624      -0.76988536232735
H        -3.07917348904788      -0.35632014830367      -1.22497350947336
H        -3.53740063460902      -0.28790764179508       1.11102021274860
H        -2.24877414640533      -1.52043391780000       1.47511331411024
H         0.56868923817204      -1.27317879665678       1.16482220658068
H         1.16795598082438       0.37947303694569       1.38043294977489
H         0.52377729196038       1.20672110046037      -1.72157442481251
H        -1.10131131987548       1.78336146334419      -1.32447244928378
H         1.68010074740089      -1.28920133877111      -1.18609479001079
H         2.40003411504520       0.30394498664719      -0.77267196294622
H        -0.15525489861882       2.81631569674922       0.84241014909014
H         1.49232863071235       2.35673310035677       0.25345868874119
H         0.48345398836114       3.48956505602666      -0.69393633960025
H         3.53439519052772      -0.67620511319557       1.19764567091626
H         2.78116314420910      -2.28782062807403       0.84654905961379
H         3.95647711906495      -1.56763187028936      -0.31319463147074
Cl        6.98439392366264      -1.76850680350082      -0.65906574259913
