29
C9H16N2O2 optimized with DFTB in AMS.
N         0.46591072718226      -0.63269978758428      -0.61187748630479
N        -1.43513704290914      -0.37326616605330       0.36473607731150
C         1.63730171140034      -0.38252914985569      -1.44588353536970
C         2.87337038798597      -0.05540041493698      -0.60349658141865
C        -0.56714229222420       0.20423833724076      -0.46780948869894
C         0.29121555632250      -1.72117491818935       0.19787494365420
C        -0.94103032720710      -1.58468016665725       0.77278351040527
C         2.64633329973888       1.14244679242307       0.31270141132390
C        -2.67739568337029       0.21350940936970       0.83008766078964
H         1.38949333904936       0.44401050094773      -2.11963631662358
H         1.81738619414529      -1.28272700800261      -2.04057135352561
H         3.13705606684215      -0.93519832204950      -0.01083487490966
H         3.69152900417278       0.14897381152453      -1.30102552645200
H        -0.69261607927821       1.15208213691717      -0.96088525349806
H         1.00996362526896      -2.52687682770268       0.21932686659947
H        -1.45392752257503      -2.19852296069786       1.49034230434438
H         1.91089298093501       0.89002925759449       1.07643989834743
H         2.29517099670458       2.00870996305617      -0.25309783497025
H         3.58066182520347       1.40281053754256       0.80890877825389
H        -2.90410561385256       1.09649654585232       0.23448174550604
H        -3.48042215540734      -0.51686172154417       0.72965685061751
H        -2.57100920785602       0.49435422294943       1.87928463956335
C         3.21475753686621      -2.08951669927186       3.48686998809129
C         2.45603857083020      -1.97369795995321       2.14339760556461
O         2.82471994117644      -2.71934694804982       1.21858817632908
O         1.52429366061072      -1.13348143972389       2.09495158127813
H         3.10015396806325      -3.10324043585154       3.86842740294011
H         4.27347147178939      -1.90216166617153       3.31337019820154
H         2.82512144489215      -1.37583232872242       4.21015659304989
