36
C8H18F2N2O4S2 optimized with DFTB in AMS.
N         0.66017664660458       0.44531456929670       0.03603077163717
C         1.90508686575078      -0.04562130576372      -0.64458016338601
C         1.17449634060270       1.01278304915789       1.32915608441199
C         2.80376317520861      -0.58185348128585       0.46471536131848
C         2.32971910078198       0.11049656591884       1.75038661449678
C        -0.26641599195626      -0.69560179213545       0.33916443122736
C         0.01068243391059       1.50899454202791      -0.80200682402529
C        -0.92423788790748      -1.32149134199535      -0.88233063062145
C        -1.23963785832007       2.10594507539521      -0.17920488997868
H         2.37193210061123       0.81570154377291      -1.13389517578528
H         1.64804105810452      -0.78974286465296      -1.39696395276030
H         0.36692063239014       1.05098827697710       2.06018887880323
H         1.52915474486996       2.02279456296996       1.12386399997831
H         3.84260212531627      -0.33117764129314       0.24504302307334
H         2.72101756771767      -1.66752742514205       0.55131305977356
H         2.00850714950872      -0.62167748255319       2.49438091710122
H         3.12501810304278       0.71921486135708       2.18284432908373
H         0.32307922862311      -1.44659995876081       0.86982904366065
H        -1.03415392280260      -0.31883626206152       1.01894521721344
H         0.75304064938999       2.29593824077090      -0.93844405582242
H        -0.20869317177702       1.07017143090970      -1.77713499769079
H        -1.48399794125673      -2.19401280143629      -0.54603340579050
H        -1.61982840387108      -0.63465476482357      -1.36045495722682
H        -0.19130654240761      -1.64946600935166      -1.61696512449393
H        -1.57426532803119       2.91164175574951      -0.83217890496114
H        -2.04601494117745       1.37945287815363      -0.08921421776046
H        -1.02824937186695       2.52830908919387       0.80174774211109
N         3.36414062235652       2.48798059192538      -1.72797033375011
S         2.57994228962155       3.13090699608172      -2.96392257321015
S         3.55888272510370       3.35047583111800      -0.41686736156118
F         3.49108947456535       4.35654723326222      -3.44750029215530
F         2.02272944060175       3.74870783149343       0.05412776841039
O         2.62256256199587       2.17531891192405      -4.02039102369769
O         1.31619748495334       3.71619716509711      -2.62965519317669
O         4.21112210326799       4.60603165319082      -0.54554806652011
O         3.97063434957475       2.44176339501162       0.61343564587358
