39
C11H19F3N2O3S optimized with ForceField in AMS.
N         0.36281837310689      -1.61678155479084       0.31484194114434
N        -1.76406367947471      -0.96780341094113       0.26703644944723
C         1.76273472398490      -1.72272519352495       0.72171497643114
C         2.64185820941418      -0.73683798694279      -0.05824751030819
C        -2.99856832429671      -0.26440611712938       0.61293702041500
C        -0.61920122552038      -0.97486144713678       0.97707427866343
C         2.23295609396053       0.72171988275335       0.19188708923440
C        -0.18043213708059      -2.03756988031371      -0.84541842450002
C        -1.50107608207000      -1.63769269055237      -0.87376718546823
C        -3.20588957760556       0.96522361199575      -0.28198598303711
C         3.18475186784780       1.69057215961776      -0.50125918607589
C        -2.05204837299898       1.96158563784112      -0.16935978672267
H         1.85946011298497      -1.51998394308893       1.81107419220643
H         2.12092482794658      -2.75948566381031       0.54224336430102
H         2.58560793710541      -0.96378765975550      -1.14524951360501
H         3.69236599056368      -0.88064826607735       0.26946263988694
H        -2.96811963578243       0.05871441866785       1.67692992673378
H        -3.86059404228834      -0.95612216707909       0.49717679238148
H        -0.48526375610606      -0.46756932962559       1.92448490619049
H         1.20932780790351       0.89703126304660      -0.19950827100857
H         2.23524265265898       0.93276148637226       1.28349525938586
H         0.35038209981413      -2.56745764159980      -1.62564519506431
H        -2.20521210380072      -1.79437966217184      -1.68049264964782
H        -3.31611085478238       0.64755561414580      -1.34116796199370
H        -4.14612909341604       1.47376030597662       0.02242060151793
H         3.19073456919607       1.50846226638649      -1.59708169047362
H         4.21271113521708       1.56912256342179      -0.10136800193715
H         2.85247040700085       2.73396771938802      -0.31580738238741
H        -1.11642998477292       1.51497929920288      -0.56480398647051
H        -1.89844153277814       2.26005497735355       0.88953567036849
H        -2.28146013357934       2.86827556456283      -0.76735789360816
S         7.70341944975637       1.00042406236642      -0.48712551693368
O         6.87833879322067       2.17502846816133       0.05794157696850
O         8.85903385986510       0.89257828012656       0.51816005953639
O         8.37933535756032       1.59631403277578      -1.73036500692168
C         6.78124099630806      -0.53722289050410      -0.76772976896392
F         5.76794634254507      -0.30944909606043      -1.67940320709630
F         6.24131560620418      -0.97149881880755       0.42704846472520
F         7.63588417178799      -1.50358133605031      -1.26212753981409
