49
C13H16F18NP optimized with ForceField in AMS.
N         0.62088084786027       0.02659203916764       0.05465933566817
C        -0.11542884431063       1.26044777638050      -0.34785555511013
C        -0.13879341696268      -1.19879856650973      -0.33007872569195
C        -1.56344003327736       1.30426143207512       0.17145910414847
C        -1.58743175212364      -1.20757965605614       0.18948558083350
C        -2.32977902811723       0.05245789401327      -0.24971823789934
C         0.91491744655684       0.03411102359790       1.51115959387133
C         1.91958481662002       0.00959871128182      -0.66250974051308
H        -0.15780583881027       1.33790894861426      -1.45924429632561
H         0.41704933746959       2.16957364662288       0.01370559856321
H         0.37621433450127      -2.11257325477363       0.04485169618280
H        -0.18279667122354      -1.29157308260959      -1.44018333094188
H        -2.07238630361033       2.19730677426410      -0.25156360778706
H        -1.58375552409769       1.41181203923302       1.27607996490110
H        -1.60982893850203      -1.29898525427919       1.29552597907701
H        -2.11341472212224      -2.09670868766864      -0.22081677649351
H        -3.34186833638935       0.06541854922059       0.20892500755667
H        -2.45305638052661       0.04569006215934      -1.35529129789244
H        -0.00519104490468       0.04719212215153       2.12744250306065
H         1.49541727476426      -0.86885049579044       1.80557367452209
H         1.51272421666320       0.92977207128702       1.79284874616383
H         1.77253848661170       0.00249839806838      -1.76617114065985
H         2.52937361911143       0.90685952623313      -0.41096804258665
H         2.51394423498084      -0.89394992021228      -0.39716034729253
P         5.18748552351986       2.18354422036388      -4.41949752575678
F         4.52256677485958       2.71994325571674      -2.92124634772615
F         4.17153775058693       0.95550037082584      -5.07453649630576
F         6.06339051413813       3.56614898375238      -3.88923513898240
C         3.65582249749557       3.14292872764348      -5.10788396868537
C         5.63773106078625       0.79238071830850      -3.15181750447561
C         6.66428236591758       2.10311525680920      -5.64653452145352
C         3.70176203335415       4.67963045746895      -4.96388078786523
C         6.30285164069931      -0.49202436591942      -3.70783332258309
C         6.82115512841281       3.25514396256333      -6.65623272799882
F         2.51589037782178       2.71360519757454      -4.43761475238759
F         3.46427909986729       2.85070698515283      -6.44934890522781
F         4.48428990723560       0.37262287442223      -2.49818387635275
F         6.49849189065441       1.32019775654191      -2.20116552449410
F         6.55495189665234       0.93375220217906      -6.37756146925705
F         7.84552380848290       2.05098345326491      -4.92458817494176
F         2.51202695006269       5.20903533798884      -5.43182778452083
F         4.72664825203193       5.22424705775574      -5.70592583424788
F         3.84744451545773       5.06138935621454      -3.64288150687668
F         6.33653637876079      -1.44218446155473      -2.70202249395725
F         5.59647008900002      -1.02931647994407      -4.76707588253088
F         7.60685983616915      -0.26526593752021      -4.09708333627937
F         5.68350968019960       3.42537070104591      -7.41461078233663
F         7.85670519430125       2.94692995435434      -7.52104762762818
F         7.14925197717121       4.43793573282045      -6.01989753628331
