64
C18H26F18NP optimized with DFTB in AMS.
N         0.33999977726779      -0.43175295708218      -1.19322400685399
C         0.92518584912892      -0.47740742370129      -2.59163648840299
C         1.42430364181863      -0.93303622535704      -0.27815774723417
C         0.00911048425731       0.98873795284924      -0.81259748477573
C        -0.86315081262089      -1.32898946466643      -1.12271682782144
C         2.37282469649629      -0.93543798914847      -2.45342372348111
C         2.72695332100409      -0.63033885599585      -1.00178198536886
C        -1.12605511242170       1.61551904552397      -1.61779031378494
C        -1.50874125441344      -1.39995596719623       0.25806464089473
C        -1.25027063107507       3.10357672857977      -1.27055067812816
C        -2.66012477942817      -2.41408460937122       0.22376618493545
C        -2.36727498547121       3.74882328436395      -2.08789888564649
C        -3.31029030462817      -2.55498328054606       1.59757057196107
H         0.86335450775584       0.51853067872931      -3.02591660623503
H         0.34007762520342      -1.16145212755157      -3.20142971464968
H         1.29725047782456      -2.01155277766446      -0.16165588429538
H         1.33944723749195      -0.45138588687588       0.69545189152664
H        -0.24065158235781       0.98957665631996       0.25139880569012
H         0.92937407977335       1.56321161314837      -0.94867533625615
H        -1.58129216602493      -0.96545312865728      -1.85680298441278
H        -0.52769782672500      -2.32079188064524      -1.43501389779747
H         2.45239283690505      -2.00870417482987      -2.64269041357732
H         3.01749825030152      -0.40887144857390      -3.15751126512915
H         3.00487001826190       0.41932625357570      -0.87806885358832
H         3.53759684406370      -1.25637505400455      -0.62800317132061
H        -0.93458889517355       1.51846521669782      -2.68606301088286
H        -2.07086826887371       1.11391404611245      -1.39694654391595
H        -0.77551397185473      -1.70423792610369       1.01097548314268
H        -1.90437244628994      -0.42196622730157       0.54503983626235
H        -0.30119386096397       3.60710941529282      -1.48370619528550
H        -1.45833663278939       3.21713831538608      -0.20075652373670
H        -3.40666829160463      -2.08359641564115      -0.50359686596215
H        -2.27807839590237      -3.38620876140385      -0.10347222862817
H        -3.32745392791321       3.29042797639528      -1.84943948221758
H        -2.17836426977045       3.62273968261169      -3.15395867050554
H        -2.42324967604761       4.81411991302300      -1.86497117136142
H        -3.70493901558295      -1.59565328363459       1.93466733406537
H        -2.58578079157689      -2.91099438856662       2.33137804214358
H        -4.13148573153061      -3.26918170619727       1.54464381351495
P        -1.75004695098240      -0.67280719108021      -5.47437155510407
F        -1.72870655991105      -0.23795465923893      -3.80932169522922
F        -0.10392752536855      -1.06947503443896      -5.41260482556084
F        -3.37964362371791      -0.29254460318959      -5.53089380492352
C        -2.10762201567137      -2.45853419238452      -4.71392192438621
C        -1.23474233763524       1.24660262265405      -5.64131429836638
C        -1.82440239619057      -1.10488502354059      -7.41454291057887
C        -3.44019778762779      -2.73086407504023      -3.96494791360897
C        -0.84291477138836       2.04164794935272      -6.92197614710870
C        -2.70212789108897      -2.24010146623276      -8.02399219750739
F        -1.14871456720440      -2.70262891636623      -3.77638784192530
F        -1.96676409792236      -3.41542368529755      -5.64359561690332
F        -0.14019319338477       1.37119672921051      -4.84105036307164
F        -2.20607311434802       1.96829960993950      -5.05323625655087
F        -0.58606318842184      -1.27096217031862      -7.90461802035020
F        -2.31300762771524       0.03948360006063      -7.94202614872605
F        -3.44717120530206      -3.98295326835763      -3.49702522232147
F        -4.51244085234284      -2.57046175781937      -4.71998919509685
F        -3.54789118144011      -1.91925451306575      -2.90248081835970
F        -0.16635151875335       3.13654355581577      -6.54967199866157
F        -0.05067288054260       1.34096699378937      -7.72500589774707
F        -1.90551040772899       2.45074549590523      -7.60155254147368
F        -2.00834932796609      -3.36412386105510      -8.16410031849553
F        -3.14400601242250      -1.88475288222242      -9.22870929270104
F        -3.76569987613655      -2.48915492807242      -7.26066470862292
