31
C9H20ClN optimized with ForceField in AMS.
N        -0.05078042408406       0.24601889481112       0.15854734859601
C        -0.96848411703878       1.23688122437004      -0.48886950438191
C        -0.51499402913294      -1.14778618516266      -0.12026379967716
C         1.30470447132922       0.46511738512485      -0.44815772482690
C        -2.45715839298257       1.03880633563523      -0.15143263188937
C        -1.99213284639944      -1.39107091099676       0.23899006642552
C        -2.90078211228812      -0.38647184950427      -0.46051042135062
C         0.01662444167972       0.49886844598743       1.62354012301341
C         2.44253282298320      -0.43220788993200       0.09687775588811
C         3.74775209237098      -0.15587867327758      -0.64692386019803
H        -0.87869301895443       1.17653546552834      -1.59886432592460
H        -0.68366300415906       2.27642865937119      -0.20560256435047
H         0.08102328647407      -1.88740230724775       0.45719649452079
H        -0.37984866624016      -1.39020964574386      -1.19952490357454
H         1.61632171777180       1.52554400475591      -0.29819239646598
H         1.25465580009367       0.30989384374784      -1.55118680686846
H        -3.06071567400450       1.74125388098995      -0.76655669329859
H        -2.66440366176177       1.28607162594755       0.91016998849919
H        -2.14114496279528      -1.33859812484642       1.33837940275919
H        -2.27824723121741      -2.41643849520798      -0.08153073969335
H        -3.94756589702988      -0.53072089115986      -0.11583500642644
H        -2.87234807692272      -0.55776207426346      -1.55948648738732
H         0.60643002019242      -0.28412032583711       2.14536682123615
H         0.47714501096184       1.48869522832611       1.83831367594606
H        -0.98330750174099       0.49039149076518       2.09874244592054
H         2.62031596517921      -0.23031867661742       1.17338396232575
H         2.20366931128926      -1.50678118109732      -0.03547574226671
H         3.64619116941903      -0.42960023304237      -1.71854774151183
H         4.01802111741130       0.91833293337134      -0.57147770955608
H         4.56700685085587      -0.75950135702856      -0.20292423778994
Cl        5.26779745414050       2.48415458033331       1.62669543310757
