43
C11H24F6NP optimized with ADF in AMS.
N        -0.28180864731035       0.10707598250003       0.04478361826910
C        -1.18516313571814      -0.91271624542871      -0.61209144971519
C        -0.98994331411778       0.35846122937258       1.36807611370468
C         1.09372531157597      -0.48823372006825       0.31758148817282
C        -1.62546744558332      -1.84821433558131       0.51794003661146
C        -1.45303016259869      -1.02200736602519       1.82071395751685
C        -0.19581916614688       1.36610743267307      -0.78444355648617
C         1.95732946741479      -0.73275252788045      -0.90557688918937
C         0.66552682880772       2.45685285044367      -0.17374492165088
C         3.30739268270896      -1.30570196128968      -0.45626640961825
C         0.65211555274294       3.70036678867242      -1.05942074275410
C         4.25684551652042      -1.53741686939210      -1.62706278656570
H        -2.03696767057147      -0.34937487795026      -1.02208591089876
H        -0.64644525549131      -1.39914585370482      -1.43525699400354
H        -0.30844595227845       0.85939010036746       2.06830854794427
H        -1.84201431916839       1.01336937745021       1.12545349114485
H         0.91660559986572      -1.42571054078181       0.86219176476212
H         1.59532301424972       0.19247261198037       1.01607768551270
H        -2.66718502955706      -2.16098708721375       0.35588590440112
H        -1.01131290467165      -2.75988279810106       0.54241488543753
H        -0.70244954449112      -1.46883406239814       2.48797047679653
H        -2.38977987640355      -0.93919070770240       2.38943422112168
H         0.17570395445252       1.06455801861174      -1.77651784641963
H        -1.23590083466015       1.71101746066915      -0.90565646131507
H         1.48288645531623      -1.43203237667352      -1.61780648726179
H         2.14423814041642       0.21112191551500      -1.44517909627119
H         0.30641200001097       2.70883964974364       0.83554045054786
H         1.69993962221264       2.10757199430172      -0.03925093197003
H         3.76081357973899      -0.61235914426537       0.27210850539597
H         3.13967972373064      -2.25492478483330       0.08254155283218
H         1.06118098673639       3.48915212246301      -2.06022480591273
H        -0.36731102188475       4.09936613247513      -1.18212544832414
H         1.26818269774110       4.48868698670587      -0.60318617322923
H         5.21846438571923      -1.94331683954427      -1.27789736661059
H         3.83308476702598      -2.25095554700875      -2.35249615511891
H         4.46643638325639      -0.59550137003841      -2.15919967714954
P         2.30041244348224       1.36192022911657       3.66504455260354
F         2.89680116967310       1.35344331136416       2.08688039909140
F         3.60254187426856       0.50198811526380       4.15618731684081
F         3.06115108597905       2.78294673267753       3.93813261480719
F         1.65587072164080       1.35460848590901       5.16882304075155
F         0.95136353569789       2.19594070747991       3.09394276603101
F         1.48922651556765      -0.07115037567447       3.31375204456762
