36
C8H20F6NP optimized with DFTB in AMS.
N         0.42878277922809       0.01533130615453       0.02323920766140
C        -0.37548513809639      -0.38787815856184       1.22734060970586
C        -0.44251707192189       0.32855681745072      -1.16102641355798
C         1.34858086862467      -1.12971709378768      -0.34613771235710
C         1.22719927855375       1.25433718955554       0.37183282209271
C        -1.39054410902352      -1.50006338343320       1.00158565234286
C        -1.57169173882427       1.31761773560885      -0.90701598394269
C         2.09692856753923      -0.97326976948830      -1.65998861716646
C         2.02686623644126       1.17906379511594       1.66247231738980
H         0.34344739730271      -0.70995315103505       1.98310223933951
H        -0.88244281951731       0.50889137485071       1.59112355900556
H         0.21879661043726       0.73240061933812      -1.93009199214679
H        -0.85273637621459      -0.61859873614315      -1.51915169313921
H         2.06006445611985      -1.23461479990839       0.47350429700580
H         0.73108472479506      -2.02912963386770      -0.38931225333519
H         1.89840417291630       1.43886934309617      -0.46663341829414
H         0.51579544068668       2.07991368163929       0.43676356595006
H        -1.89628873656951      -1.67332810396976       1.95154713598447
H        -2.14202482118351      -1.23173551142185       0.26206531380314
H        -0.91514469318787      -2.43097684102266       0.69885507529735
H        -2.10361777383875       1.44932051806654      -1.84931214802632
H        -2.28096865810565       0.95508002257234      -0.16591328848572
H        -1.19939858284536       2.29043936200823      -0.59205589406942
H         2.85276007117607      -1.75794007731718      -1.68907847896183
H         1.43971836854413      -1.09070321744426      -2.52063082746464
H         2.61873409634552      -0.02249834907615      -1.72579850474046
H         2.69653807837623       2.03867250789936       1.67096341432489
H         1.38746221335541       1.22726644266312       2.54322666060472
H         2.64744151968943       0.28801872366021       1.70940648492985
P         5.23063000973909       0.36821258334366      -0.06382073225664
F         6.28093149213522       1.50032260558662      -0.57313676430042
F         5.06695868640914       1.12022418204291       1.39479941724478
F         3.94867593750043       1.30701809869807      -0.63777363945238
F         4.09655097081254      -0.77455047312694       0.44756012008048
F         5.27474437193895      -0.39164709979689      -1.52169979117164
F         6.42708325856162      -0.57039065694994       0.51166430310581
