56
C16H32F3NO3S optimized with ForceField in AMS.
N        -1.08641929665096       0.82864231286345      -0.17799655925537
C        -1.58311678598639       1.86480765603240       0.78511300596471
C        -2.05364563739547       0.73501135400575      -1.31993373008040
C         0.21485191542033       1.30103069856669      -0.76295111313992
C        -0.93119558275064      -0.48599798746644       0.53753376221648
C        -3.02814957767158       1.62408168253982       1.27039497551279
C        -3.50035574435496       0.43753392322756      -0.89391261293087
C        -3.99177545726948       1.49141187295167       0.09394303458772
C         1.41868124414188       1.36409170244906       0.20859348039154
C        -0.34288023676838      -1.64463954322968      -0.30219145131067
C         2.66312088459729       1.88131438255034      -0.52634536059629
C        -0.22328382688044      -2.91495166675449       0.54986950478430
C         3.88248056521363       1.92610404561114       0.40035857921248
C         0.36464561452669      -4.07183694044955      -0.26438701222280
C         5.11287245006922       2.44381754936616      -0.33954845462153
C         0.47959462855784      -5.33705173967560       0.57981313377703
H        -1.55476293667586       2.87656008796751       0.31821002614093
H        -0.93722477967230       1.91250586493209       1.68809093054018
H        -1.73519277320635      -0.02303813183001      -2.06543691462374
H        -2.07538726080349       1.69943596431760      -1.88046741206143
H         0.08567850565412       2.31843556405936      -1.20049563015873
H         0.50422294968465       0.65977362615135      -1.62181912447228
H        -1.90343663706145      -0.84147763020256       0.92891217518576
H        -0.30341401090031      -0.35428226831119       1.44615888578026
H        -3.34609959376589       2.48443977665429       1.89768947285684
H        -3.08806582226507       0.72442902816932       1.91735385800013
H        -3.59169695456618      -0.57960166531136      -0.46065722507196
H        -4.15136120263432       0.46063220427791      -1.79452666339969
H        -4.07813762137658       2.47214154915107      -0.42386279296127
H        -4.99976049657946       1.20933368884538       0.46694004913157
H         1.20082479226460       2.04538752939588       1.05618784641660
H         1.65336860939381       0.35677599248375       0.60930068237668
H        -1.00266409286601      -1.87230924872334      -1.16365925883355
H         0.66631241516431      -1.38546953982552      -0.68072876969054
H         2.46122255594164       2.90369752209675      -0.91570159161968
H         2.88552095424703       1.21347212741543      -1.38846113746562
H         0.43230763458475      -2.71196915715341       1.42546574616606
H        -1.23078265954022      -3.20449188921980       0.92328645714277
H         4.09804287954451       0.90598531498043       0.78647223013014
H         3.67333557891768       2.59435648110579       1.26388068187430
H         1.37572599326257      -3.79303004912007      -0.63307597296937
H        -0.28696662365083      -4.28233473441879      -1.14038523578064
H         5.98148643282850       2.46520428332133       0.35155021633051
H         5.35624102030640       1.77925452334972      -1.19607743692707
H         4.93217141333038       3.47365747500956      -0.71521703721844
H         0.90967575724185      -6.15514525421268      -0.03534606742467
H         1.14498259517028      -5.15978665550853       1.45151866876269
H        -0.52254064641292      -5.65258263136923       0.94083907740320
S         3.48224322578063      -2.01309355377050      -3.94816900138293
O         4.09928441378894      -0.78426065368913      -4.63178714233186
O         4.09117218493472      -1.97089260164256      -2.53902620974043
O         4.21812457684986      -3.18629109410930      -4.61164495760511
C         1.67160259231666      -2.10413802959426      -4.00948670542635
F         1.25514402665445      -2.15058144075114      -5.32544737900373
F         1.13468774492732      -0.98933395271638      -3.40000764669172
F         1.24336872518895      -3.24004155069303      -3.35144340386702
