61
C17H29F6N3O4S2 optimized with ADF in AMS.
N         3.22781096169529       0.75106242001009      -1.40053931650540
N         3.08819067730859      -1.39993985636456      -1.16405721111442
C         1.85068547641019       2.79426143283459      -1.19832841775478
C         3.24070788594215       2.17614322689275      -1.06399735528933
C         1.95411690849891      -2.78264555258256       0.55418698377463
C         3.03313957339074      -2.72401416201066      -0.51933409291688
C         0.80741417700263       2.16730238123201      -0.27420797340251
C         0.55087908330357      -2.47755864576147       0.03315651705208
C        -0.56154576878936       2.83874214275233      -0.36983884418761
C        -0.49141112442388      -2.41377412446335       1.14713356628192
C         3.06526700021056      -0.23218842233923      -0.50877212098209
C         3.36908587539008       0.20140535730822      -2.65675079962423
C         3.28234825398440      -1.15178336752024      -2.50867492724312
C        -1.60316056531553       2.20005857993267       0.54834211802823
C        -1.89227177098764      -2.07998535041135       0.63944812903463
C        -2.97335511002551       2.86433168558988       0.44178206817940
C        -2.91940205007457      -1.98393015163735       1.76449193331745
H         1.94972359336015       3.87116262776507      -0.97596344592708
H         1.51588146788132       2.71836708688376      -2.24880062344491
H         2.22720913368421      -2.10164842981846       1.37818845298468
H         1.98957169015611      -3.79686256423288       0.98928854859712
H         3.98189577797058       2.65156173140675      -1.72103957198629
H         3.62956107995028       2.24510632970438      -0.03693784364821
H         4.02996592111591      -2.92504950298043      -0.09428707892480
H         2.83254084685470      -3.44526298546981      -1.32569344380813
H         1.16744482632189       2.21597603320813       0.77092839485406
H         0.69020458376205       1.09576538729003      -0.51750114165885
H         0.25563103615754      -3.24195996901441      -0.71059842392552
H         0.55174544043998      -1.51152216721579      -0.50469892119516
H        -0.46372744489776       3.91180983950082      -0.12022763184166
H        -0.92039660928297       2.79472510238491      -1.41569574446283
H        -0.18215872368720      -1.65378676557769       1.88927249784262
H        -0.51639161867787      -3.37878415417806       1.68698380839488
H         2.98053024645728      -0.11367039265563       0.56587184826297
H         3.55130680971219       0.81158938102542      -3.53208842490531
H         3.37490456885109      -1.95369564699698      -3.22973702949638
H        -1.69334951377826       1.12676288876930       0.30349438566678
H        -1.24478834846252       2.24972938694399       1.59307032964707
H        -2.20842101711512      -2.84615359367663      -0.09273073140984
H        -1.85690848800078      -1.12238422528558       0.08872595385889
H        -2.91471974407313       3.93330627538410       0.70407789333171
H        -3.36659995693739       2.79424690411893      -0.58557503156595
H        -3.70300074421017       2.39114422112178       1.11534325479196
H        -3.92156200064635      -1.74708332249134       1.37761362729780
H        -2.63885541599765      -1.19814701606761       2.48469951237857
H        -2.98597221031663      -2.93447695118383       2.31830060999746
N         5.51904346568862       0.20654591561075       0.65353706686985
S         5.38172618546830      -0.82390234025662       1.87100009476967
S         6.80011465617634       0.45661920889787      -0.29528901859775
C         6.49554096482160      -0.22927187627573       3.28280909736162
C         7.22630896567702      -1.18747702673693      -1.14845715608263
O         4.02174459722713      -0.62751524445049       2.39354715979126
O         5.82953187383283      -2.18549930480801       1.58649431605470
O         8.02121810928751       0.81213863176113       0.41102510807984
O         6.30828923756505       1.28557264669360      -1.39472952252869
F         6.12681332181360      -0.86669569481709       4.42012274794025
F         6.35258455351476       1.10239628658895       3.46393053659211
F         7.78657357155679      -0.50737070217782       3.02960413058520
F         7.93743323284046      -0.91620767266528      -2.26928419002269
F         6.09730232543773      -1.85513918191487      -1.52061498348453
F         7.96198644218017      -1.98822641857346      -0.35854221158183
