34
C10H22ClN optimized with ForceField in AMS.
N        -0.10910538504066       0.04169528567025      -0.07325353831088
C        -1.01464018335909       0.56925843266234      -1.14606971207123
C        -0.64832742757786      -1.27498834678998       0.39914252580522
C         1.23039795593183      -0.19075379792832      -0.71761657074205
C        -2.48926678650793       0.69036459428944      -0.72302945041706
C        -2.11928294111259      -1.22432253402614       0.85956570026134
C        -0.00549745450208       0.99135522236103       1.08985070865826
C        -3.02023081918398      -0.65292675999892      -0.23105994642946
C         2.36444730402951      -0.66443149223894       0.22665891425520
C         0.61588285588142       2.36515007695205       0.77721407892148
C         3.65491475931289      -0.90376423246318      -0.55494839133554
H        -0.99084743297682      -0.10716154472990      -2.03270710286456
H        -0.66950769887385       1.55367685324703      -1.52488730505166
H        -0.05577039682477      -1.66843043605168       1.25252866504936
H        -0.58668768659708      -2.03158491556184      -0.41633401507504
H         1.57629057965990       0.73167760586806      -1.23583476704991
H         1.13456071394152      -0.95263640005821      -1.52636062068237
H        -3.08908021384054       1.00822391263354      -1.60326846173400
H        -2.62251338782676       1.47074383956030       0.05428861282750
H        -2.22542129137199      -0.63392668035900       1.79326138367497
H        -2.45687069904045      -2.25656748692602       1.09685416368445
H        -0.99800566083082       1.19388887910160       1.53631610350401
H         0.57765200637898       0.53213992355578       1.91751072561674
H        -4.04951906085441      -0.52208177485466       0.16790456368228
H        -3.07023761842101      -1.36765274565541      -1.08231044799242
H         2.58238059608960       0.09896508009988       1.00094290341316
H         2.09432533627389      -1.61544611216626       0.72825397452057
H         0.64187091987125       2.96363452340991       1.71242056334687
H         1.65980737362849       2.27835776954141       0.41680494628444
H         0.00746862019725       2.93494496228529       0.04769591326200
H         4.45889842292380      -1.22678655506738       0.14020403790717
H         3.50502056806949      -1.69959902105424      -1.31576039326890
H         3.98000571756720       0.03044078424804      -1.06131378738248
Cl        0.49073521048568      -4.74482984665590       0.15965656863252
