51
C13H24F6N2O4S2 optimized with ForceField in AMS.
N        -0.55286949620829       0.09205872590674      -0.09501681031317
C        -1.54632448797937       0.54204707370473      -1.12304772742255
C        -0.89851205998625      -1.30434728927802       0.32739053702855
C         0.78407170874485       0.07318015756518      -0.78159953025660
C        -0.54347155978436       0.99194704579842       1.11008204042303
C        -3.00976418218362       0.45439200670271      -0.66142177928770
C        -2.35451843252193      -1.47033437180405       0.81129745213572
C        -3.34729720036035      -0.97047573189239      -0.23424301795981
C         1.99758659037883      -0.30057235055238       0.10325938227606
C        -0.14410990216840       2.45518712176977       0.84934614926070
C         3.28004342868365      -0.33239278028102      -0.73846110690480
C         4.48832229159204      -0.71481253901984       0.10868228697551
H        -1.45958473461828      -0.09025134996254      -2.03806562139309
H        -1.33757509798840       1.57695596457439      -1.46543771239034
H        -0.24183014626281      -1.64358230759290       1.15700563245414
H        -0.74455927274383      -2.01513203786106      -0.51717119720254
H         0.99131396957668       1.06090789057351      -1.25062862119128
H         0.75970193125749      -0.64910417530614      -1.63061238118987
H        -1.53732391959544       1.02400117301261       1.59551282083450
H         0.13127757082650       0.58470265981137       1.89365190603068
H        -3.67075278203905       0.74037228562416      -1.50792789494567
H        -3.21529265806477       1.16927744059842       0.16147689852409
H        -2.51699516945069      -0.94375935328070       1.77463144880961
H        -2.54963375855506      -2.54726258526565       1.00358020751806
H        -4.37635831068716      -0.99917363401027       0.18438760406863
H        -3.31824409368481      -1.64074599570948      -1.12156936061012
H         1.85662912350791      -1.30172041617705       0.55872880358076
H         2.13550550265997       0.44675272930472       0.91159995156805
H        -0.16491155581397       3.00560464296916       1.81366416460854
H         0.88398465107429       2.54117009368924       0.44649687009969
H        -0.86306302069958       2.96187789983965       0.17587288570424
H         3.45933830991332       0.66975261322517      -1.18592377398409
H         3.17339574364923      -1.07087893751319      -1.56277075375010
H         4.35281136630047      -1.72845171920126       0.54214152723470
H         4.62360978329395       0.02032553631825       0.92938844594106
H         5.40061879479073      -0.71818363377521      -0.52461914128911
N         9.37517343788572      -1.92446650292490       1.92396357462395
S         9.17302748247429      -0.65174077693156       2.93629617406217
S        10.71098067326966      -2.11902497582476       0.99458931852840
C         8.30280207001194       0.64310041681540       2.07992603170102
C        11.81257769809486      -3.26735024454021       1.79262918834065
O         8.35236723464017      -1.08863157522480       4.11634088207654
O        10.50220671672303      -0.13272975471276       3.41112462139470
O        11.41693381204296      -0.80693124246682       0.78960263031324
O        10.30483924103471      -2.68458422689011      -0.33656039799044
F         8.09995425661580       1.70968688678016       2.93456036639808
F         7.08248761869343       0.16487885962597       1.64962710899746
F         9.03904730353827       1.06260684876067       0.98875173748829
F        12.95106783500979      -3.42395877221437       1.02537356839820
F        11.18329491599954      -4.48966640928732       1.93300274937874
F        12.16322361631233      -2.78740250136966       3.04002885680355
