34
C10H22ClN optimized with DFTB in AMS.
N        -0.78188197508428      -0.02420197891432      -0.14026786418999
C        -1.89366803682276       0.12173312542944      -1.13225314471700
C        -1.02485827324955       1.10969417608936       0.81418807077686
C         0.54050055439942       0.12428144818717      -0.83115623067115
C        -3.11111192960752       0.55815066655643      -0.31944574597437
C        -2.53959867858958       1.18789628097736       0.96105705584260
C        -0.89308024927983      -1.32759277926826       0.60638221193324
C         1.74643085678742       0.01033489902978       0.09896274417290
C        -0.58834006117970      -2.56302563569425      -0.22349781423116
C         3.02618812634809       0.35217806954232      -0.67058324332107
C         4.24862787018741       0.22404812699473       0.23614635388034
H        -2.04159392500013      -0.81487836869192      -1.66892694839875
H        -1.60314659369937       0.89824966015671      -1.84393332723171
H        -0.50711937903446       0.90388354330140       1.75958890163854
H        -0.62568698256500       2.01805374580525       0.35716263707259
H         0.58284498658750      -0.63478535139628      -1.61702951109973
H         0.53229438489755       1.10821913340841      -1.31003705025353
H        -3.70420391574559       1.27339760417355      -0.89223512915484
H        -3.74766026398386      -0.29677328851763      -0.08282393886923
H        -2.86980597273410       0.63601564306832       1.84326088874299
H        -2.85408628842047       2.22648129662514       1.07331501889295
H        -0.20672126541227      -1.25438749814100       1.45987501494611
H        -1.91327996265604      -1.38151780134445       0.99031889218949
H         1.63709869829272       0.68822941630903       0.94745086972885
H         1.82441257280964      -1.00226358970533       0.49917945377137
H        -0.79961706240537      -3.43098927042426       0.40081370834921
H         0.45936982610139      -2.60580350637409      -0.51583380572823
H        -1.20706850578233      -2.62864035576673      -1.11873320419800
H         3.13141419744334      -0.32109983845380      -1.52902502072231
H         2.96008674529447       1.37635866743026      -1.05431489420576
H         4.34021154246885      -0.79627159704274       0.60933449466324
H         4.16109475099693       0.89821477393157       1.08823449853717
H         5.15230735156350       0.47602575336561      -0.31892158862552
Cl        0.65140897357403      -0.22433431404679       3.18876993285389
