33
C7H16F2N2O4S2 optimized with DFTB in AMS.
N         1.44147433262144       0.04434239660455      -0.09324547270010
C         0.87398091299628      -1.30631139674882      -0.41249582948723
C         1.44269082784816       0.10222721034101       1.40800750883031
C        -0.17135098703645      -1.57369276255118       0.66595577725224
C         0.23847967601811      -0.71186323684890       1.86878242075906
C         2.84516870868383       0.21410605534525      -0.60199948087505
C         0.55622911226383       1.11011342297642      -0.62749476383207
C         3.00112593721064      -0.06834398596065      -2.08616994596805
H         1.68854903721971      -2.02843769953539      -0.35824068354850
H         0.46097047800190      -1.29598026854891      -1.42143721401218
H         1.42128648968504       1.14423429571880       1.72817698020971
H         2.36753185799003      -0.36169062224520       1.74888584246210
H        -0.16999145281036      -2.63385350754914       0.92169460238701
H        -1.17033244548148      -1.30373949501285       0.31534080919246
H        -0.58229274704337      -0.06410367930036       2.18281571895629
H         0.53589669336832      -1.33331759626063       2.71575364970183
H         3.14209521589427       1.23918010965839      -0.36505882350502
H         3.47459387842592      -0.47413583462204      -0.03127381695047
H         0.48779313601772       1.01838976187809      -1.70928781745040
H        -0.43308364856861       1.00071310739275      -0.18855498663137
H         0.97166832653492       2.08111663274780      -0.36363187261840
H         4.03357222397208       0.15357845768348      -2.35549475284119
H         2.80896880390136      -1.11741891482118      -2.30510907088021
H         2.34763933324690       0.55424122919780      -2.69605019372686
N         4.28474552282994      -1.58017243369250       1.69667743422329
S         3.74425543264311      -2.99057999727336       1.22471185269119
S         4.19289704335459      -1.23735579711771       3.25981631806627
F         2.14963683873817      -2.97452852584848       1.65735442983444
F         5.17732757942135      -2.28158649443489       3.96996404284670
O         3.67185140530222      -2.94364813920900      -0.20835844968786
O         4.26382166735721      -4.15054674508760       1.85905016202981
O         2.90930750996672      -1.47510656932590       3.84741726415736
O         4.79365660692651       0.04273314335036       3.43679868201491
