40
C12H25NO2 optimized with DFTB in AMS.
N        -0.91470774703375      -0.11814613962324      -0.02937552313076
C        -1.89272295436935      -0.96604089764110      -0.81391804337572
C        -1.72485263053741       0.45587462484010       1.09997268614174
C        -3.13552241216471      -1.13810313673878       0.05884929226149
C        -2.73252457696923      -0.62734823971386       1.43980879661036
C        -0.39766560048669       0.98545553699283      -0.90469208852557
C         0.18480126912020      -0.96625864283935       0.53453633407049
C         0.59675468442179       1.91517040197944      -0.21711660522657
C         1.15526727807331      -1.51877870669335      -0.50982480007702
C         0.91013879023880       3.08517860268026      -1.14946023986935
C         2.09187871919052      -2.53302499586321       0.14603818179466
H        -2.12652870006933      -0.42683508984103      -1.74207021784797
H        -1.42066973646761      -1.91911717878478      -1.05311207002332
H        -1.07138986317849       0.73731671755641       1.92528918638071
H        -2.24852639941040       1.32808090577018       0.69739853139609
H        -3.93803508365633      -0.51173762202970      -0.33789370727118
H        -3.46821059607685      -2.17703996092776       0.08219163386455
H        -2.28102912093325      -1.41770043231125       2.04675683969928
H        -3.58022828042711      -0.20921418147881       1.98361559649788
H         0.03986294704810       0.52731690841473      -1.79301349193083
H        -1.28030223610135       1.54802716507928      -1.21944190211552
H         0.73235444424740      -0.36007770792903       1.26074703641637
H        -0.29418426226635      -1.79101797230486       1.06853343848430
H         0.17121122180705       2.30124205038067       0.71346356457559
H         1.52531003120732       1.38988203395855       0.02748426432517
H         1.75038350553763      -0.70921947568008      -0.93906431100218
H         0.61127030501687      -2.00464552151077      -1.32347896702073
H         1.34448860367067       2.72395823872664      -2.08218447372345
H         0.00028683270764       3.63865770251091      -1.38142413756047
H         1.61955395849306       3.76076424359334      -0.67213031684589
H         2.65442753859189      -2.06742877625753       0.95611993597628
H         1.52585302419634      -3.37236103531493       0.55164747653719
H         2.79629887801271      -2.91308133282221      -0.59302092193029
C        -4.57836851060340       2.32207194672502      -3.01276257922907
C        -3.42215406163650       1.63762261219296      -2.24745759548407
O        -2.56001937064258       1.05380090384533      -2.93853130028747
O        -3.44210175651055       1.71289814104883      -0.99646619499146
H        -4.16459359831330       2.96063046513815      -3.79175156144935
H        -5.18857476379338       1.55181392809157      -3.48313474050864
H        -5.19136484383344       2.91025008268042      -2.33271808570527
