50
C14H15F18N2P optimized with ForceField in AMS.
H         0.53769375475582      -0.47940316396675      -4.91627865596955
H        -1.13905629015770      -0.65215867930374      -4.26508076567550
H         0.00877018540996      -2.04413849020255      -4.17462534188730
C        -0.07631837724661      -0.93870996801126      -4.11376604059857
H         2.48564883905362      -0.10778276689058      -0.34424734806594
H         2.42900072778086      -1.20785842810919      -2.77811645717751
H        -1.33932841757916       0.49987153756817      -1.99834380661121
N         0.39577599482889      -0.48246242516228      -2.81280851016152
C        -0.30594001530374       0.19575375396393      -1.88425093291437
N         0.43903618305540       0.42827262670796      -0.78542262469150
C         1.64828001084757      -0.11617968251716      -1.03005349196450
C         1.62053307553985      -0.68169548479793      -2.28862092956495
C         0.01484827911988       1.11349349250140       0.43312792091232
H         0.78650304251007       1.85980382280784       0.72344395931033
H        -0.93685836553303       1.65801413238497       0.24483783059343
C        -0.19573351997432       0.10121482049191       1.56289030011127
H         0.75700336640162      -0.43869148572869       1.75670300194513
H        -0.96247057819054      -0.63938601261182       1.24453871427331
C        -0.65809511007385       0.79536920736157       2.84865751153301
H         0.11982636297239       1.51496561231025       3.18551216431300
H        -1.59836314724451       1.35696099703864       2.65615686771829
C        -0.90987092833725      -0.21839572441747       3.96106389195399
H         0.01954761502721      -0.78359277736960       4.18651836590417
H        -1.70829441453943      -0.93008613162664       3.66035394305898
H        -1.23550895588486       0.31192362085845       4.88064427927632
P         6.41081866052863       1.59232129829503      -5.23089329441630
F         7.20215873875995       1.35331306615296      -6.74121465954230
F         6.89032220009213       0.41479864278636      -4.06702405798786
F         6.02123029958633       3.02478770844500      -6.09962332289114
C         8.21711943984125       2.15024253298789      -4.79665271740569
C         5.44843433617189       0.17622014786869      -6.13512704691914
C         5.05509383504760       2.38103997061263      -4.10087736013264
C         8.82415783163566       3.32300382483931      -5.61416350346556
C         4.32708257118407      -0.52819813463050      -5.34381443366128
C         5.46557670212865       3.60780207544722      -3.26302241582259
F         9.07542922132573       1.07108692249118      -4.96959902620245
F         8.28520463549417       2.50041910411230      -3.46308766764521
F         6.33624616068829      -0.83027920260203      -6.50530442377686
F         4.87092559580796       0.69168909211595      -7.28734794132984
F         4.62903085375457       1.43061675226812      -3.19067318348891
F         3.95451343065205       2.73928282206219      -4.86720153172714
F        10.04587044857888       3.66230392182913      -5.06013748149218
F         8.02863767109925       4.44820550795099      -5.59056115126953
F         9.05028598916794       2.96210604687274      -6.93021787911067
F         3.87472190015372      -1.60875378526734      -6.08085733541266
F         4.78775411706620      -1.00903842643921      -4.13273587268171
F         3.24912297063111       0.30927467225261      -5.13882380176325
F         6.28825475681275       3.23495855265514      -2.21714634834619
F         4.32863282957491       4.17343948515540      -2.71256627550284
F         6.08687208647811       4.57231028745881      -4.02449609632716
