51
C13H28F2N2O4S2 optimized with ForceField in AMS.
N        -0.69330709005308       0.53774215022942      -0.20285754860753
C        -1.66588056979533       0.28238363049733      -1.31530696658408
C        -1.24961340255223       1.61513402864574       0.67983311157847
C         0.56715748580305       1.04641028950672      -0.84747717343797
C        -0.43877912869923      -0.69879388970577       0.61697215274053
C        -3.08460319019614      -0.07534015224992      -0.84160032890073
C        -2.67290924001527       1.32671870435028       1.20354020396635
C        -3.63911210039451       1.02103228991990       0.06221486227400
C         1.76630839362631       1.29135361582162       0.10352157445848
C         0.22582805425608      -1.87926674770046      -0.13260161195915
C         2.97211758664132       1.83260169028455      -0.67716491079036
C         0.43642509446044      -3.06836061673584       0.81369741192516
C         4.17960073183870       2.03933092934363       0.23376545266822
C         1.07388830468599      -4.24852021787414       0.08619781907840
H        -1.30619749481679      -0.51383239420039      -1.99936659496018
H        -1.76086183044286       1.19131135391884      -1.95496359999193
H        -1.28670251734896       2.58657607011173       0.13461167972316
H        -0.60383782894582       1.77372903269337       1.57026854519960
H         0.36069210128773       2.00734666080584      -1.37414225104946
H         0.89962517472894       0.35015603399952      -1.64975259201396
H        -1.38015954702844      -1.08579909547588       1.05206156226066
H         0.18687941340788      -0.44920023429956       1.50182651457144
H        -3.10157172828191      -1.05605206824753      -0.32364686241604
H        -3.74516574318706      -0.17228048326246      -1.73022530244930
H        -3.04155758969113       2.22076430481634       1.75117482365559
H        -2.66653465541745       0.49001742507129       1.93251561688564
H        -3.81118794143384       1.94349581426416      -0.53506910263358
H        -4.61655491669743       0.69622908476592       0.48021109076202
H         2.07491631944259       0.34607997144729       0.59429099709597
H         1.49802823741273       2.03037854092067       0.88553033515425
H         1.21430804380537      -1.58217998330688      -0.53774646094149
H        -0.41791802300816      -2.21866177501162      -0.96858087290236
H         2.70848710959793       2.80426793078801      -1.14895195607476
H         3.25162057096216       1.11701254032617      -1.48102003121794
H        -0.54115611899423      -3.39423942612375       1.23156157195948
H         1.09604204128437      -2.76613277158499       1.65635569633909
H         4.48583645866991       1.07576201366446       0.69373255715785
H         3.93875331230405       2.76950850899849       1.03511669714813
H         5.03062312817181       2.43334162701137      -0.36086870991873
H         2.05209829244875      -3.95226980796291      -0.34467514143108
H         0.41089848521730      -4.60173665070105      -0.73153386515117
H         1.23570952765193      -5.08322943185141       0.80027711946731
N         6.72263507224494      -2.72842139987662       1.37500234812827
S         5.36174325626160      -3.54848016718363       1.76612165801827
S         7.55165293319488      -3.06556691707315       0.00474546942073
F         5.77654178586248      -5.06493240321322       2.34309664106629
F         6.70079650549962      -2.48274987399931      -1.31491417148951
O         4.60776045333486      -2.79899129039590       2.82712199111245
O         4.49623050283739      -3.71082375794718       0.54963307625411
O         7.71786714891062      -4.55204327731278      -0.14108190717432
O         8.90157863094813      -2.40944513790631       0.05884298312572
