43
C13H24F3NO2 optimized with ForceField in AMS.
N        -0.22682224780865       0.30783026051591      -0.16295536054318
C        -0.92322536367431       1.27959790768470       0.74320880190221
C        -1.12720108987023       0.01209425425232      -1.32469619884353
C         0.12329118821605      -0.93496430918685       0.61042634325670
C         0.99929263964528       0.97107180039734      -0.73007350382966
C        -2.33057039386923       0.82836364282869       1.19006278134372
C        -2.51562884949906      -0.51378256131551      -0.92722577074744
C        -3.21601665974284       0.47822682421584      -0.00365389697453
C         0.91232012870491      -2.01354609737948      -0.17041030718365
C         2.12982609204225       1.28392971539890       0.28157796835354
C         1.21786023446530      -3.21230430475341       0.72668772019633
C         3.28322397305760       2.01824272633495      -0.40125142048167
H        -0.33270606788421       1.45599634852966       1.66767515482321
H        -1.03515645545424       2.26868167950597       0.24229449163767
H        -1.30006517216533       0.94121343738857      -1.91574816563420
H        -0.66030484435476      -0.70240863078537      -2.03439930277252
H         0.70356261302823      -0.66745099620496       1.52070708384217
H        -0.78766534620931      -1.42585006247812       1.00427225344111
H         1.43207201820515       0.35203885884340      -1.54763271633646
H         0.71629195247508       1.93201179346770      -1.21970522572911
H        -2.26924817963956      -0.03465505016076       1.88502854932394
H        -2.80860291649336       1.65703860580461       1.75636158768362
H        -3.12764974960452      -0.63760115792783      -1.84720115168813
H        -2.44834140215835      -1.51345210589357      -0.45110042061438
H        -4.17040968705277       0.03772208159141       0.35765260232965
H        -3.45949929758249       1.40465878042180      -0.56943433536199
H         0.32376359202343      -2.38532364149189      -1.03291928588765
H         1.87807355227644      -1.61481402082007      -0.54132991520424
H         1.76029482294148       1.92696133231649       1.10518071674464
H         2.54174397772168       0.34976547794533       0.71472581190779
H         1.77890605559166      -3.97806760935913       0.15053468957596
H         0.27476500159036      -3.66962449565707       1.09567057769638
H         1.83570366889864      -2.89934440026350       1.59538368052621
H         4.09016166378080       2.21320302804999       0.33665943261302
H         2.93678241144824       2.99147978293778      -0.81004556705811
H         3.70116015623049       1.40292595892768      -1.22658720440250
C        -0.39923871032699       0.35282414850008      -5.92593457086251
O        -1.25384870198034      -0.23146272424497      -5.27865187642469
O        -0.30794295839367       0.14997214750462      -7.12605197477973
C         0.54028735286545       1.31189743196399      -5.25703707521893
F         1.83362203169689       0.83330390234960      -5.35336401396490
F         0.21468087293052       1.46151412667237      -3.92216498848511
F         0.46290411922826       2.54531343407281      -5.87686781806905
