28
C8H18ClN optimized with DFTB in AMS.
N         0.08867913297501       0.12098977513849      -0.08733269858399
C         0.99858283864121      -0.64668730141763      -1.01355182120990
C         1.02374400019960       0.97211677428183       0.72689852537368
C         2.37818448135428      -0.68746248818772      -0.35393114520801
C         2.24875821480627       0.10227597828542       0.95038194426660
C        -0.64117630616648      -0.81553674767384       0.82822399086421
C        -0.83774276628638       0.98091870094301      -0.89699288795914
C        -1.71933663004481      -1.65250093861632       0.15342565177273
C        -1.76457854630755       1.84284768765904      -0.05678110830861
H         1.05140118608197      -0.09113218313869      -1.95141400186684
H         0.57975116230985      -1.63634068937590      -1.19335098074335
H         0.53301396659355       1.28936481627461       1.64675389098355
H         1.28583939681254       1.83427428493211       0.10609676581678
H         3.09593203076466      -0.19838282736411      -1.01567917892930
H         2.70649711974344      -1.71215666826178      -0.17159135013800
H         2.11460177253961      -0.56265429383806       1.80826983527642
H         3.12538853424119       0.72587223524883       1.13021100863697
H         0.11126217685960      -1.47171487050004       1.27185182090234
H        -1.08742393073125      -0.21564700567295       1.62503214296062
H        -0.18871838923379       1.61745036018349      -1.51017068854794
H        -1.40785584809049       0.32074583725367      -1.55396348011733
H        -2.08552080797166      -2.37451677823752       0.88311913156532
H        -2.55916379907774      -1.04044983984327      -0.16998391162059
H        -1.33208053730689      -2.20037614599798      -0.70378907194557
H        -2.34526447554924       2.46362977766439      -0.73863293543414
H        -2.45761028286423       1.24977526777400       0.53943933703186
H        -1.20102195265843       2.49972429779635       0.60373588037941
Cl        1.93927096026617       2.14641806629059      -2.08433860941778
