43
C11H24F6NP optimized with DFTB in AMS.
N         1.19115429613412       0.51393475251377       0.43039833088187
C         1.17645913620663      -0.49317455220652       1.54086819673026
C         2.50076353223780       0.27312001077462      -0.25338274467326
C         0.06540972709359       0.30744612535956      -0.54281381706646
C         2.62290068179353      -0.60284949436124       2.01372621729078
C         3.48475045823274      -0.04839077149924       0.86841158688128
C         1.15951615461624       1.89411662143601       0.98536468167283
C        -1.32007832121129       0.52459533214241       0.05895212841815
C        -2.40460725762057       0.08193568745661      -0.92796611082682
C        -3.78669317675343       0.22360700186165      -0.28138999166675
C        -4.89690467534243      -0.24703056410615      -1.22504784481892
C        -6.26752492040274      -0.13819355173346      -0.55915143082224
H         0.81369980233035      -1.43768404891003       1.13190095974149
H         0.50484806555312      -0.15773822870106       2.32596185569599
H         2.77235223997914       1.15034990757840      -0.84154475543492
H         2.37449283764019      -0.58396959853128      -0.91895322482127
H         0.15831074585113      -0.71801666607300      -0.91185552502914
H         0.23968759452010       0.99421529284131      -1.37686279331657
H         2.86701382425463      -1.64424089421309       2.22841030103811
H         2.77256441413426      -0.02531529940255       2.92777471421928
H         4.01972467607800       0.84998160674516       1.18311162774719
H         4.22048506832947      -0.77700856302146       0.52426347138186
H         0.26271723273571       2.01296810748348       1.58864541647018
H         2.03674592714936       2.04445830666111       1.60980756666378
H         1.16032040222045       2.60651724104415       0.16220757849125
H        -1.42535319638281      -0.05177620729389       0.97748549980788
H        -1.46471165993079       1.57856733295307       0.30550504308705
H        -2.23703941288666      -0.96354869753443      -1.21015009577174
H        -2.35203502667774       0.68829595510060      -1.83935236211283
H        -3.95415387276218       1.27130304516831      -0.01136253087617
H        -3.81370467667435      -0.36570221205629       0.64041688935995
H        -4.88358634420147       0.35936980136673      -2.13771580810491
H        -4.71397520438574      -1.28806022163190      -1.51322225496804
H        -6.46279850343790       0.89040292582644      -0.25269512882097
H        -7.04839134978946      -0.44757512696745      -1.25434738864451
H        -6.31329859625873      -0.77693696926588       0.32354690926745
P        -1.53401849079413       0.09050908501610       4.03435180445808
F        -1.05289906697894       1.25161913701537       2.88901668043661
F        -3.08391830875620       0.32246449580865       3.57541714174004
F        -1.37096483242459      -1.07300784910421       2.83111151412816
F        -1.95337633744425      -1.05906500182848       5.09965297832966
F         0.07865950334860      -0.12665829420598       4.38828512823831
F        -1.63780114172271       1.26226137869408       5.15681889179798
