22
C6H8F6NP optimized with DFTB in AMS.
N        -0.84179848412525       0.08937564586297      -0.18915871674941
C        -0.19350280354723       1.26142397416608      -0.14493123713103
C        -0.20282006669610      -1.04799177081024      -0.50453938987636
C        -2.29700691819766       0.05984505292802      -0.06719916825286
C         1.16878671099032       1.31466847930007      -0.35650043316378
C         1.15824927330305      -1.04702680049788      -0.72423725789918
C         1.86155253840829       0.14764001859007      -0.64755048279540
H        -0.78707013209689       2.14680740148751       0.04261358811676
H        -0.80773738862863      -1.94152346471835      -0.58918067295362
H        -2.58875922697347      -0.75823697198163       0.58978857229543
H        -2.64801908151944       1.00952938079249       0.32874053262027
H        -2.70690110431257      -0.09764111305964      -1.06604598369642
H         1.67249174256316       2.27192942106890      -0.32667880795055
H         1.65278717667838      -1.97276492241526      -0.98789933990467
H         2.92697633662258       0.17321856044456      -0.83961508569728
P        -1.12267148376438       0.60264470209679      -3.63764137395326
F        -0.81788468325737       1.95454404963472      -4.48655056298754
F        -1.56979869764879       1.54342332608892      -2.30790321781102
F        -2.68056814764421       0.58153147868124      -4.11836096929191
F        -1.42167179469161      -0.77377643253421      -2.69613111770314
F        -0.67093944029242      -0.35298802254625      -4.87286489541493
F         0.43221647173026       0.60027495792111      -3.04549842340011
