40
C12H25NO2 optimized with DFTB in AMS.
N        -0.28935152943385      -0.23175678473213      -0.06942120208622
C        -1.10757285327394       0.71652445837783      -0.89203233097191
C        -0.81659713884596      -1.63030822463022      -0.26095368695324
C         1.11479160446939      -0.16751085254618      -0.61237840417127
C        -2.59366556624403       0.65573224652022      -0.56074112810300
C        -2.31057286118110      -1.75712435259987       0.00227727170675
C        -0.31697276906554       0.10850030525916       1.39571882374098
C        -3.12831344722885      -0.75408682570048      -0.80524031173816
C         2.13849564651957      -1.05286807309259       0.09746399039185
C         0.15877882892586       1.50881077638755       1.73992742840549
C         3.49175103691081      -0.90795383577388      -0.59552626528584
H        -0.95453919717655       0.44089044239280      -1.93992226452740
H        -0.71406081961602       1.72334108622085      -0.73902166612690
H        -0.27299833137097      -2.26820267803993       0.44446861839578
H        -0.58104098814316      -1.91837093773724      -1.28966161138468
H         1.42857881534278       0.87906788143423      -0.56609899613315
H         1.05211718482108      -0.45317927714821      -1.66689457059545
H        -3.10545468027508       1.37326273570616      -1.20813807348873
H        -2.76960885365750       0.95459254534380       0.47535663649178
H        -2.50483017797029      -1.64170860262310       1.07135069812688
H        -2.59592041248815      -2.77599568620400      -0.27189308413953
H        -1.33592010760405      -0.04142209357309       1.75004861601039
H         0.30477656788812      -0.64255248312326       1.88864581250207
H        -4.17815614322712      -0.80692679905308      -0.50776545469457
H        -3.06429925777644      -0.98686576215986      -1.87413250491920
H         2.23519737049389      -0.76788251532908       1.14599759591250
H         1.82534169236056      -2.09702040092754       0.07362777191343
H         0.12247184681844       1.59945254805566       2.82552847263682
H         1.18551997755442       1.68495844136060       1.42188934142671
H        -0.48187066695470       2.28184808147217       1.31578042339089
H         4.22444007552499      -1.53812563398524      -0.09315598582515
H         3.42684320233561      -1.21576450290852      -1.64028637247174
H         3.83832835821427       0.12608073902990      -0.55785682092483
C        -0.10734180642122      -3.91251275797343       3.95337269608115
C        -0.23180558812288      -2.81042493960363       2.87742261285810
O         0.76794853770931      -2.64510301895579       2.13466852177403
O        -1.30573209442800      -2.18092703286945       2.82309100216803
H        -0.15077350324649      -4.88286350396426       3.45913667930279
H         0.85200219328698      -3.82124862903929       4.45968434065257
H        -0.92134963422418      -3.83558809246758       4.67140498655203
