52
C14H18F18NP optimized with ForceField in AMS.
N         0.37852062509125       0.26029756004939       0.03263758204240
C        -0.59999597098758       1.28584996385210      -0.45046927511709
C        -0.11292849071719      -1.11615051973373      -0.28323871301718
C        -2.04738168292475       1.05416290979613       0.02137781101260
C        -1.54309779162112      -1.38914146296050       0.21449806908650
C         1.66279768338781       0.52093927197548      -0.69758873620573
C        -2.51630667842800      -0.35224433580309      -0.33451841732062
C         0.60181629277692       0.42137804325264       1.49538700426319
C         2.83762865097536      -0.40538074416668      -0.33577482539687
H        -0.62355574731577       1.30183458353850      -1.56529602337427
H        -0.28821613378490       2.30564564563941      -0.12701734883127
H         0.54274423884571      -1.88684339500567       0.17697910985512
H        -0.09533446295769      -1.28826220268418      -1.38398584314641
H        -2.71112887965206       1.79071940642846      -0.48103119299740
H        -2.14708135908020       1.22820499611988       1.11264250920549
H        -1.57692694497044      -1.39470782504264       1.32461217333108
H        -1.85969812713196      -2.39775359035282      -0.12842072867406
H         1.50635256277661       0.43105264659750      -1.79739927735887
H         2.00121197925083       1.56761592427599      -0.51748607475071
H        -3.52649298824459      -0.52663341565250       0.09481635368769
H        -2.58824797590163      -0.45474311509434      -1.43963873809013
H        -0.34291711897204       0.39697828936653       2.07175279628839
H         1.22755895570418      -0.39955733198221       1.90504183708152
H         1.10087359054717       1.39021281922340       1.71994460293474
H         3.71648885243535      -0.11962688686113      -0.95095935342754
H         3.13559865889840      -0.29616436483740       0.72634246483471
H         2.61086945022528      -1.46595483303277      -0.56366868735350
P         8.24533779156967      -5.20574412479676      -0.39178816480222
F         9.27180928377916      -4.16891056115202      -1.30722223068705
F         6.95403010473787      -5.82412619494984      -1.35196311122205
F         9.61022251175362      -4.99027442550118       0.63404230765791
C         9.12704778305633      -6.50451068252408      -1.52922813785251
C         7.35958312089624      -3.48474485770432      -0.49105279323055
C         7.58073222621166      -5.90691878728407       1.27995549566478
C        10.66383381461778      -6.64621203374663      -1.37743535216006
C         5.93823005176630      -3.38311474062669       0.10351634875121
C         8.14986854343754      -7.25211171813965       1.76762395197377
F         8.89085236889548      -6.17222340815399      -2.85783616601371
F         8.57831398480086      -7.75673147946026      -1.32957732705897
F         7.23131774948683      -3.10349017503968      -1.82425639622270
F         8.13867072408890      -2.53790571644031       0.15955600790137
F         6.21520704848259      -6.09557188397158       1.16464474076714
F         7.79335675168505      -4.97832634658067       2.28883139015780
F        11.11263146301372      -7.60536612383591      -2.26842915323881
F        11.01613452357812      -7.05583256715265      -0.10982755583135
F        11.32222173932188      -5.46488244098494      -1.66719382860295
F         5.42319319095294      -2.13713994480077      -0.20480216213984
F         5.09302420989518      -4.33446696375140      -0.43615009946659
F         5.94572958045900      -3.48901858469321       1.47960921560435
F         7.77038468729842      -8.28370286868883       0.93323215318634
F         7.63047446648324      -7.52136015269751       3.02186510150368
F         9.52235342750662      -7.21969442242883       1.88450659209923
