31
C9H16F3NO2 optimized with DFTB in AMS.
N         0.17238911722033       0.47342102411350      -0.42105521746928
C        -0.30431129269525      -0.64812706057451      -1.31274191908131
C        -1.08302809131167       1.12720346177693       0.08978692776755
C        -1.78145506045038      -0.87936498592124      -0.98605936004194
C        -2.07333859071472      -0.01383370418254       0.23951857905892
C         0.95220261114929      -0.05731271688982       0.74499841002723
C         0.97775429130949       1.46159385108679      -1.18783830839786
C         2.31235945754742      -0.63640011262683       0.38054654078300
H         0.30913720590033      -1.53062296755983      -1.13342966901687
H        -0.18422533289585      -0.32575989073720      -2.34589571962326
H        -1.42674214883477       1.81918105238516      -0.68273277090427
H        -0.86810257636520       1.66707297051622       1.01217893324725
H        -1.98884635521063      -1.93411113561423      -0.80004201649711
H        -2.38637399423581      -0.54010482038130      -1.82939365857776
H        -3.09654277201327       0.36296679888196       0.23570197550044
H        -1.90782492075277      -0.56690780285395       1.16851736576838
H         1.08546997542278       0.77081331320603       1.44656507729925
H         0.33478465300307      -0.82284802697286       1.22075258055497
H         1.81596782660979       0.95697934587936      -1.66110998452221
H         0.33622938563440       1.88842205895369      -1.95749787743581
H         1.32773983320168       2.23562228523378      -0.50722670897821
H         2.72070048879031      -1.11488711607267       1.27038063953016
H         2.23856117769353      -1.38448198146864      -0.40670756587173
H         3.00434563944183       0.14202617335860       0.06425695501882
C        -1.60680396014588       1.65460587971358      -4.00726211581161
O        -1.57110189526565       1.50909282344053      -2.77415562430248
O        -2.29841817912159       2.29869364747159      -4.75685120422540
C        -0.43002059990400       0.75086005232191      -4.70841332202429
F        -0.66397013942761      -0.57386811949881      -4.52157145142246
F         0.76759638489285       0.98185690698669      -4.08708485139703
F        -0.22538643147209       0.93284672422808      -6.01193640795506
