39
C11H21BF4N2 optimized with ADF in AMS.
N        -0.29411583738365      -1.63749183414905       0.38880441528615
N         1.75496927240681      -1.56696973504562      -0.31906871850525
C        -1.44317289284594      -1.64906048881120       1.31237951243037
C         3.22726744289467      -1.49780672907947      -0.30342691070071
C        -2.44272951775133      -0.54566191943207       0.98713173376393
C         3.75140710752696      -0.33090382913255      -1.13197003877678
C         0.98655214746609      -1.59285584359240       0.77605857293387
C        -0.34582777519086      -1.62722464780054      -0.99133719038163
C         0.94416339042772      -1.58224136571276      -1.43641000939711
C        -1.83367627745384       0.85041177656196       1.07940632297628
C         3.26556036679207       1.02245339161084      -0.62002059024994
C        -2.85758438322415       1.95002238310147       0.82089306856723
C         3.85239519709393       2.18927035073540      -1.40666771941483
H        -1.90161936481952      -2.64944822696427       1.25648821138256
H        -1.01494550208889      -1.49333796567594       2.31368329592224
H         3.50332250007313      -1.36883964989678       0.75350387398722
H         3.60522305173062      -2.46567012943321      -0.67028631069045
H        -3.27181495999635      -0.64886956108420       1.71073088397418
H        -2.88978026625329      -0.71287225107664      -0.01101724339608
H         3.48692108815038      -0.46541193420132      -2.19781277974932
H         4.85439546472105      -0.38270749913137      -1.08507795642930
H         1.33743875461660      -1.53258510715494       1.80334172511779
H        -1.28204852341470      -1.64157117634052      -1.53403123416737
H         1.34613256569705      -1.55085374777039      -2.44100447837221
H        -1.37241071761342       0.97808472055058       2.07219181024496
H        -0.99924602898481       0.94077532936563       0.36398797531004
H         2.16428088814106       1.06128203331832      -0.65747949263975
H         3.51710549593212       1.11314953386744       0.44906672721019
H        -3.67764605736980       1.91060250063432       1.55651597122279
H        -3.30221554211075       1.85811154540382      -0.18435680278044
H        -2.38780689383743       2.94166207424417       0.89371521391055
H         3.57409280710105       2.13849513790709      -2.47266777930190
H         4.95296701283042       2.19642920626608      -1.34590884747032
H         3.48782713569933       3.14695266090821      -1.00720662635281
B         1.68074408296521       0.53613556410405       2.97147420103850
F         0.66199581072383      -0.37697090461848       3.44358662287828
F         2.84691961835410      -0.26290117661581       2.67090903609149
F         1.96597653986652       1.50985597493481       3.92138875150262
F         1.21689739052802       1.10963902280532       1.75056674882496
