27
C7H13BF4N2 optimized with ADF in AMS.
N         0.46604495782345      -0.62875868854500      -0.42254851872847
N        -1.02825178116279       0.93712515255357      -0.52016451614254
C         1.75517834030443      -1.32408989476183      -0.59739885819126
C         2.90713096082578      -0.51818676373314      -0.00442172807979
C         0.16367254859186       0.54615726898666      -0.98985196440731
C        -0.54279541843935      -0.98247159204870       0.44972346122233
C        -1.48333842782765       0.00628677898112       0.38975131061825
C         2.72297307419834      -0.21291849161985       1.47655982503602
C        -1.60789483658243       2.25318463604713      -0.78415474255538
H         1.89379454710085      -1.50212733115743      -1.67500777018509
H         1.64403079156629      -2.29968296416922      -0.09970512623858
H         3.82611570622716      -1.10606876926543      -0.17695826500107
H         3.02386230002999       0.42483277157063      -0.56376414395908
H         0.83848679717090       1.16100335949533      -1.59672223691089
H        -0.50443847788841      -1.89235498742585       1.03444474185993
H        -2.42096975926512       0.12799272393733       0.91721227639136
H         2.65563289369577      -1.13523516640683       2.07793851079340
H         1.82133925913244       0.39683462150722       1.63752485239430
H         3.57001242175656       0.38599075517544       1.83904818118965
H        -0.96477449075770       3.00271666299676      -0.30267306216100
H        -1.64479029978297       2.42398260781732      -1.86673330790592
H        -2.62267992112646       2.27642795461306      -0.37248050068550
B         2.19779424306559       3.11258808945535      -0.33177635933861
F         3.44258693114287       2.82470083150901       0.24723445317305
F         1.14824242040018       2.54304488240648       0.48552191054055
F         2.12385853161237       2.44576765432878      -1.63453240322317
F         1.96729143078805       4.47883178955209      -0.50489799780517
