45
C11H24F2N2O4S2 optimized with ForceField in AMS.
N        -0.84098405117786      -0.20395250600578       0.02427849546775
C        -1.17769320145866      -1.24537511733085      -0.99503915299996
C        -1.97415098611499      -0.23674719836045       0.99909914222781
C         0.42972115880004      -0.56429109936787       0.73385730693568
C        -2.60106502515892      -1.70986140071771      -0.74977343267129
C        -2.80316473495799      -1.47490781985668       0.72049263610938
C        -0.76816717256061       1.13756802995392      -0.64125939717098
C         1.69760404060405      -0.53995405212663      -0.15356017623758
C        -0.40966842535279       2.30728396481678       0.30608857374922
C         2.90726832563467      -1.06726144444382       0.62763605811569
C        -0.49615200915494       3.64486696777801      -0.42451907203456
C         4.18143809078626      -1.01043206336647      -0.20891150695532
H        -1.07607546126874      -0.88462907191254      -2.04441093491359
H        -0.52590408969471      -2.14513674579091      -0.91147983563197
H        -1.64195703809920      -0.23680337927132       2.06271072787632
H        -2.65359296497650       0.63899617395063       0.88492438159665
H         0.33020124409804      -1.58309965247351       1.17637948784585
H         0.59922878863131       0.11500600422899       1.59834812380608
H        -3.31028316462402      -1.08170149631610      -1.33317944849066
H        -2.74239893847138      -2.78001419908193      -1.01608373894622
H        -2.40349001611536      -2.33666269818174       1.29974042703663
H        -3.87631238075891      -1.32215522151547       0.96761686445014
H        -0.02885366447971       1.12101385354575      -1.47231927811684
H        -1.74743591198969       1.36504459204165      -1.12409939556414
H         1.55426061802179      -1.16280516226015      -1.06146201164636
H         1.91805128020509       0.49938247499032      -0.47474307240151
H        -1.09714503592076       2.33766383408277       1.17667405921451
H         0.62694096109219       2.19763038612886       0.68546760750843
H         3.05535793362861      -0.45568906095217       1.54436689127838
H         2.72658669610544      -2.12091506376602       0.93353585598770
H         0.21468558555986       3.66362459648953      -1.27822634351944
H        -1.52699780085013       3.81500206292653      -0.80196471485310
H        -0.23413980490022       4.46848683506773       0.27279922950228
H         5.03510181622966      -1.37193113137659       0.40153961212229
H         4.08360966694318      -1.65758456565692      -1.10637349279036
H         4.39156321940206       0.03262946580609      -0.52755755873103
N         9.58559057317270      -2.14543435915096      -0.99101307038720
S         8.16381761652599      -1.34198613846397      -1.08309484179780
S        10.13780868699524      -3.03560219517459      -2.24800830357739
F         6.91223751619177      -2.45224147148566      -1.13294542016493
F        10.78411167838257      -2.00992870585033      -3.40270309030634
O         8.00612154101750      -0.45564055966070       0.11910856054754
O         8.12697764873177      -0.51017847559051      -2.33403856854597
O         9.01091852138085      -3.81649951511132      -2.86388628675384
O        11.20365534334546      -3.97772800128790      -1.76673838976996
