40
C12H22F3NO2 optimized with ForceField in AMS.
N        -0.56071850607273       0.30808198741643       0.15145015740517
C        -1.55810915434705       1.23949439770562      -0.46646847420499
C        -0.89599539385478      -1.10884826992482      -0.18864644345167
C         0.77638619314847       0.66793125777895      -0.42856561709221
C        -3.02746917060332       0.89156538888344      -0.16039319349863
C        -2.34565855238960      -1.49646055221828       0.15047596901979
C        -3.33223943369802      -0.55538145750422      -0.53022158629666
C        -0.53081339801078       0.50652110550359       1.62655989287446
C         1.97984761817751      -0.15403766988347       0.09512381347637
C         3.28411718291692       0.31982983311042      -0.55915420386728
C         4.48041620267013      -0.47772523367586      -0.04786876125118
H        -1.45159401500673       1.23725725638745      -1.57648187142309
H        -1.37243749788398       2.28685682482573      -0.13441578246657
H        -0.23641269533157      -1.81615761263465       0.35910082290767
H        -0.73811760377982      -1.29149137881359      -1.27667799653155
H         0.99280859463802       1.74472651764710      -0.23606654864079
H         0.75251067505916       0.55100479759403      -1.53707317630745
H        -3.68638340213052       1.55854131662621      -0.75726456375051
H        -3.27240270043414       1.07575485275029       0.90607527471270
H        -2.50611286769596      -1.48921801993606       1.24972011678085
H        -2.53531718209009      -2.53294055463135      -0.20312156290791
H        -4.36679538847948      -0.80967654670681      -0.21389289829133
H        -3.26684228961126      -0.68049810526503      -1.63371425893615
H        -1.53607008371994       0.43011034953622       2.08209925377446
H         0.08577827660887      -0.26681129518798       2.13132921419856
H        -0.12559577937811       1.50916262392433       1.88842162889107
H         1.84673493347728      -1.22930513095820      -0.14298829037737
H         2.08501058947368      -0.03459994557147       1.19286707642303
H         3.44862393265649       1.39600609965133      -0.33328283842213
H         3.21749232759663       0.19843260215608      -1.66232236326873
H         4.35699039289015      -1.55505306168826      -0.28895913053826
H         4.58305177298070      -0.35711551410116       1.05168233204684
H         5.40804451471831      -0.10858276754968      -0.53359734512803
C        -2.69358165556674      -0.07072576852329       5.48506397629223
O        -2.27714182811416      -0.80410466742036       6.36770116281487
O        -1.90497632047088       0.58743776234493       4.82637257198800
C        -4.16440286367599       0.02580301117933       5.20533562510832
F        -4.57251022795350       1.34170442077515       5.32466902389203
F        -4.88208296929619      -0.75034448694007       6.09926351645743
F        -4.41925494511699      -0.41464435556201       3.91949318658863
