58
C16H22F18NP optimized with DFTB in AMS.
N        -0.28775354344225       0.51610504600306       1.44981491307349
C        -0.32942632204594       0.77883592521905      -0.02729302083285
C        -1.20036778023674      -0.64147378196334       1.75564827423665
C         1.12681270826868       0.12245403826931       1.78965979553731
C        -1.73897340363859       1.04872190438037      -0.54231128539553
C        -2.62740008619638      -0.41839762996038       1.27469977650794
C        -0.71847546443318       1.71661248568183       2.24611279862154
C        -2.66644387993160      -0.12244975626595      -0.22157240875991
C         1.39574014623796      -0.13063681248327       3.27313592612162
C         0.15146976521697       2.95111934271959       2.08867149927530
C         2.86067017939958      -0.52409686190425       3.45815875108662
H         0.08057291519843      -0.10903857769447      -0.51737891247215
H         0.32808757010696       1.62524136779677      -0.23413300507581
H        -1.19276948315597      -0.79166270473427       2.83404403361174
H        -0.76924223426138      -1.52046299205295       1.26747514281648
H         1.77707609484222       0.92051869535285       1.42259295731202
H         1.34430114340375      -0.78253728964437       1.21503249281968
H        -1.66974275135284       1.18645649220005      -1.62463666264082
H        -2.13415803139197       1.97330693222693      -0.11478034240814
H        -3.09672661496638       0.39096396847603       1.83624622525898
H        -3.18694976391178      -1.33155738931598       1.49145545865324
H        -1.74148086432276       1.95450457576134       1.95806135891332
H        -0.73055000755852       1.40399514158410       3.28763112062182
H        -3.68677508113201       0.12461687846501      -0.52248618440628
H        -2.34808804826057      -1.00606794885909      -0.78476456963586
H         1.18966151675432       0.76444339560408       3.86296860504462
H         0.75860123342451      -0.93487645671749       3.64557155270144
H        -0.27196559823127       3.71610429886814       2.73975924275355
H         1.17861868777857       2.77490781262667       2.40265619675799
H         0.14889811288922       3.33053858205222       1.06762462140797
H         3.05325665481385      -0.70905489574946       4.51392988250294
H         3.09118292888140      -1.43059022862330       2.89724603962976
H         3.51996922750321       0.27542181968909       3.11848097756273
P        -3.01696871681635       1.73837202374044       5.75982891242092
F        -3.46309170411839       3.32812144244940       6.00373593782438
F        -2.67449273403435       2.10177900962259       4.11788073556423
F        -3.32132409082898       1.32037273921003       7.34611688322700
C        -1.19477785763644       2.26229857556305       6.27354544592525
C        -4.89647348985262       1.41691512743455       5.32263379590505
C        -2.42399246351964      -0.14254052652581       5.32024680079026
C        -1.00480942290587       3.58542992394398       7.06332361440596
C        -5.41457901283513       1.89768072747247       3.94019585501734
C        -2.49751580891389      -1.32914881816609       6.31657668068469
F        -0.37652452047552       2.38058362928269       5.19394310372105
F        -0.67728825152848       1.28440051363595       7.03718093684254
F        -5.64602103786315       2.03831161725715       6.24478747000901
F        -5.18850899082935       0.10480376289339       5.40210119143064
F        -1.11637255456321      -0.10082812790940       4.92919223121428
F        -3.09408177970177      -0.53899113191671       4.20835997676873
F         0.25076227682494       3.65423557376173       7.52124544124505
F        -1.82177523446903       3.67183656677408       8.10239996559777
F        -1.19633329237310       4.63945343553985       6.27265331405067
F        -6.73543876790654       1.74439199871812       3.85563817469571
F        -5.13601849703999       3.17731637020670       3.72077094691577
F        -4.86834894308525       1.18249545200094       2.94513896168229
F        -1.67601508760032      -1.14602114136371       7.34297625439993
F        -2.11633870106785      -2.45251566387042       5.68807054583932
F        -3.72123781830913      -1.52287518446285       6.78528653122067
