51
C13H24F6N2O4S2 optimized with DFTB in AMS.
N         0.48475902301904       0.78094439287710      -0.66412514015987
C        -0.30213750959320       1.89526645427719      -0.03597200823296
C        -0.07506977886144       0.51729291017121      -2.03590011805953
C         0.43131774109335      -0.43424961829291       0.21454976457133
C         1.90589197231749       1.24383122484677      -0.86769249795400
C        -1.80217234509877       1.62654157073035       0.00246883653850
C        -1.55975641292889       0.18904812607109      -2.02471827673765
C        -2.34645916016831       1.33653094568862      -1.39485547505279
C         1.27418242488217      -1.61495330219596      -0.26694867440224
C         2.69660193871794       1.56163893736924       0.39691269431599
C         1.07179031275558      -2.79735498001806       0.68024444319136
C         4.08155575164317       2.06193359007583      -0.02062888161485
H         0.07941313362893       2.04421481156644       0.97573651299278
H        -0.10076216352142       2.79117342822572      -0.62672628739840
H         0.09198204358756       1.42603070950365      -2.61597258870391
H         0.50879605198314      -0.28292604635839      -2.49090466303195
H         0.76072556337767      -0.12331414414790       1.20911651728127
H        -0.61323147415626      -0.74238961763391       0.28726809290698
H         2.41504774248403       0.46822543511012      -1.44121697913418
H         1.85118596364302       2.13756439888515      -1.49078416444598
H        -2.02917020186076       0.79597821407524       0.67711934523855
H        -2.27991326216765       2.52205739700790       0.40860041323328
H        -1.86855332250510       0.05544453211397      -3.06450011568040
H        -1.75788689102016      -0.74762832099950      -1.49581601050713
H        -3.40549253894979       1.07633804650307      -1.33203021909371
H        -2.24854269285414       2.23035889655510      -2.01841084345575
H         0.97931394422032      -1.91000493682447      -1.27646466595818
H         2.33325882114188      -1.34994196933807      -0.28507839239801
H         2.19566149392452       2.33567441381536       0.98467100043756
H         2.80576959542697       0.67243111623234       1.02451771501959
H         1.67616087251791      -3.63945757187151       0.34572144790586
H         0.02524720167199      -3.10362255160283       0.69557645018374
H         1.37378947679095      -2.53285568517437       1.69411231198832
H         4.66721382435804       2.30483022237262       0.86496293033236
H         3.99019889535849       2.95286346281630      -0.64197258828637
H         4.60401347561811       1.29721375236467      -0.59469991745172
N         3.36045964358771       3.24037800675524      -3.08744280011334
S         2.56739845926565       4.50950429337991      -3.67079365660468
S         3.15333337594930       1.84050747718869      -3.84445988908216
C         0.99556679795107       4.58310585118221      -2.64146821778989
C         3.94140344489198       1.93316111154846      -5.55028781180527
O         3.26042076143781       5.69237911502248      -3.24869840588897
O         2.11773118830016       4.39795113068166      -5.03174591992441
O         1.76696653067982       1.46932375458504      -4.08535092035547
O         3.95261776858394       0.87620491134764      -3.11767043892557
F         0.37664609920206       5.73865288597573      -2.78133371421349
F         1.30253471774242       4.42566246965933      -1.34403235630400
F         0.13407800366652       3.60670744697697      -2.94514514478637
F         4.61129134787953       0.81052307433898      -5.75953926175608
F         4.77983309123261       2.94971016343380      -5.61022923767862
F         3.01965313795306       2.05998201322675      -6.48098019034961
