23
C7H8F3NO3S optimized with ADF in AMS.
N         0.08548100387546      -0.83051789492694      -0.04224070491308
C         0.91276139027985      -0.14954208955067       0.78121516264734
C         0.43756065487989      -1.08839424641962      -1.32044518726200
C        -1.09677162868970      -1.49698873193763       0.52537547404122
C         2.10293639744391       0.36629897243608       0.30901459957498
C         1.62048526272329      -0.59580760457911      -1.83457466857874
C         2.46744594641433       0.13788126233840      -1.01247190444292
H         0.59120559613549      -0.05634618684270       1.81497772379827
H        -0.24453339616455      -1.71541924719905      -1.88823107089693
H        -0.74602984070028      -2.45685858633723       0.93484249566315
H        -1.51896536049786      -0.86301060445487       1.31274739931799
H        -1.83359361209737      -1.65272588881517      -0.26903285177863
H         2.75859740544357       0.89560078287468       0.99841074019355
H         1.89060501121800      -0.83860183002758      -2.86109163627805
H         3.42566911628060       0.49692641636031      -1.38961157755345
S         1.98868449889890      -3.36915008841131       0.61460000472108
O         1.44549512756543      -2.71768317233926       1.83312563110782
O         3.18474239508802      -2.72900000944507       0.04655333574250
O         0.94731626998691      -3.75144864332050      -0.36811995010599
C         2.60809109465579      -5.01265238051377       1.26550307892865
F         1.59351992896908      -5.72452266314883       1.82765536844194
F         3.56636270639986      -4.83164708137943       2.21221834951461
F         3.14265307179141      -5.76006226276075       0.26441179241670
