25
C9H13NO2 optimized with ForceField in AMS.
N         0.18012748851945      -0.00682557013170      -0.33621205025320
C         1.62528209140703      -0.00829947941669      -0.59444664863502
C        -0.48320964180172       1.18144649888489      -0.19092323024727
C        -0.49343567777253      -1.19365459998192      -0.23415196655192
C         2.39992898465142       0.00465780220939       0.71838307425709
C        -1.85828497563055       1.20078515742886       0.05536082323544
C        -1.86844766008455      -1.20985472013414       0.01228473665465
C        -2.55256243533279      -0.00377884413143       0.15596047526072
H         1.91587804046761      -0.90732836854022      -1.18218803127996
H         1.91204256921174       0.87972546734362      -1.20047783956423
H         0.04964496981444       2.12218881605462      -0.26466731402750
H         0.03127076259356      -2.13573216702962      -0.34092668159457
H         2.15812703255963       0.92185075219876       1.29581118244119
H         3.49016047541507      -0.01203097641845       0.50887982194435
H         2.13773146930980      -0.88689198561761       1.32549412928246
H        -2.38037584374413       2.14251488255997       0.16663852465413
H        -2.39827885367527      -2.15045566693532       0.09058098898505
H        -3.61811467604495      -0.00261860607982       0.34531153364013
C         2.84176361095960      -4.19426848742396       0.73555745423981
C         4.18735427212172      -3.64202404915201       0.38496413466190
O         4.31733910040832      -2.93355706846513      -0.60004598730559
O         5.15802469600805      -3.89774845667820       1.07946735371545
H         2.13353569698974      -3.36104245058104       0.92409843592062
H         2.46137257236865      -4.81181375304342      -0.10497505662418
H         2.90248014458068      -4.82692568901943       1.64711399069047
