27
C7H13BF4N2 optimized with DFTB in AMS.
N         1.07027614843163       0.14157429999179      -0.27378753498447
N        -1.08189152397682       0.11537532190221      -0.27588627790478
C         0.00324448708721      -0.60683281991762      -0.53324441939027
C         2.43871480840361      -0.36833507804666      -0.25812131436568
C        -2.43758049511751      -0.42679064432401      -0.26556647615384
C         0.65811034717200       1.36560524820723       0.18503532291471
C        -0.70054016276540       1.34906858454771       0.18388666237500
C         2.86983909880959      -0.61452445781783       1.18362166970496
C        -2.86783771977421      -0.68533045770955       1.17449850909789
H         0.01675191218974      -1.61867486868903      -0.90065494241792
H         2.43820973797401      -1.30841107108120      -0.81469090836184
H         3.08787258293209       0.35888764954472      -0.75472811330966
H        -3.10212357840506       0.28574559212909      -0.76313544828604
H        -2.41325405527706      -1.36563518513485      -0.82365384509732
H         1.35267923624719       2.13818022455069       0.46506480549032
H        -1.41429209495087       2.10450413752237       0.46234920231404
H         2.88337985051035       0.31820140444282       1.74714302695405
H         3.86845050190271      -1.04861358698046       1.18606452047202
H         2.17563345130470      -1.30779596179338       1.65659203190777
H        -2.16375554431125      -1.36948336944497       1.64622437961930
H        -3.85927943382717      -1.13542056316593       1.17311730102911
H        -2.89745505732369       0.24542077111033       1.74052834738443
B         0.03055058616331      -3.07407876389976       0.94503812169846
F         0.01485999601534      -1.84081772645086       1.66225000104962
F         0.04142712918947      -4.14340720822501       1.78758751776975
F         1.17696460017390      -3.03827406284278       0.11336201765477
F        -1.11349339117780      -3.06465290152507       0.10858427813561
