25
C9H13NO2 optimized with ADF in AMS.
N         0.31093297761025      -0.39664936225566      -0.40432936531109
C         1.77396488623651      -0.51921573114038      -0.42805096715563
C        -0.28447523830810       0.76325125575165      -0.81660403708673
C        -0.45199661326821      -1.58557347432923      -0.25295757327495
C         2.35818767583736      -1.01198993985619       0.88737060051145
C        -1.63693575110902       0.93036480928586      -0.80172186735379
C        -1.87146924743138      -1.32606317513607       0.03423497573248
C        -2.43717905950908      -0.13702167025921      -0.29394061574354
H         2.06423510294194      -1.20106365162730      -1.24616347662187
H         2.16965986239703       0.47844095106473      -0.66884481217355
H         0.40116018433209       1.56127897833993      -1.10000223129405
H         0.03618792626333      -2.28035024314700       0.43562800533769
H         2.01046157495429      -0.38942894671845       1.72502375072951
H         3.45610540151617      -0.95439312095360       0.83529173237452
H         2.09366894122796      -2.06303772545376       1.06940284809696
H        -2.07210074746954       1.88293996725478      -1.09650580654898
H        -2.44992551844529      -2.14144850483944       0.46829475872512
H        -3.50481120908238       0.02565729862579      -0.12954123292778
C         0.42018817507152      -4.13125606129025      -2.97184735791878
C         0.45716252801963      -3.41667504015257      -1.64479015763580
O         1.19456620019964      -3.74858338997252      -0.72452179833424
O        -0.40012288378326      -2.37713725862666      -1.62062596492025
H         1.08472232076689      -5.00145340239843      -2.92801223532013
H        -0.60577635375278      -4.44248546521198      -3.21367659418359
H         0.74742142598443      -3.44992708425403      -3.77111382610297
