62
C18H36F3NO3S optimized with ADF in AMS.
N        -1.34129913666608       1.59754904193355      -0.29335102864849
C        -2.53631987400462       1.91865364886141      -1.18430114589809
C        -1.00095936227384       2.85718419295746       0.49675659047816
C        -1.62824025119841       0.46327536531297       0.66426657803978
C        -0.18422239257947       1.27100644767135      -1.22599339391493
C        -3.74048146820563       2.40566355383404      -0.39891086267049
C        -2.17260536275025       3.38017465680730       1.31404764120845
C        -3.39289629571600       3.64113880086956       0.43138690837366
C        -1.93872196144048      -0.88172967469548       0.02845041212011
C         1.10469658680172       0.83766625626240      -0.55173963209602
C        -2.23351791515663      -1.92719242520498       1.10969830866863
C         2.19434475792449       0.62548468249477      -1.60777654375616
C        -2.55020056435175      -3.30584549355006       0.52981711667575
C         3.53143283450998       0.21564892791104      -0.99436635582344
C        -2.84901175366123      -4.35430759604935       1.60093947560919
C         4.63358115216869       0.02638866760040      -2.03514731585908
C        -3.15926719070073      -5.72893930864506       1.01296116731025
C         5.96793714624882      -0.37681983173717      -1.41350590417001
H        -2.16599221744665       2.69779991416499      -1.87132097642307
H        -2.75271644570996       1.01151420852741      -1.76600907338847
H        -0.14034273284494       2.61041669695264       1.13241541522075
H        -0.71580047430375       3.61655471482704      -0.24930855179359
H        -0.74718059961846       0.38986992644110       1.32033291659645
H        -2.47131059013806       0.78485209388035       1.28751502654168
H        -0.55231649501378       0.48482608409186      -1.90384832112203
H        -0.03915028860749       2.18801706118353      -1.82194780754710
H        -4.52048022080348       2.65133497266673      -1.13805835794575
H        -4.15248089926953       1.60039494212218       0.23558838001539
H        -2.41787189471025       2.70194310185986       2.14988084176503
H        -1.82915052255577       4.32563333510829       1.76483618854950
H        -4.25396034759952       3.94420555377317       1.04683891571262
H        -3.14893073686865       4.47360268410862      -0.24760139851409
H        -2.81530721569609      -0.80122865096031      -0.63648869401007
H        -1.09258490767869      -1.22886447350965      -0.58750337551040
H         0.97203428008056      -0.09840683669790       0.01924017309518
H         1.45209868731029       1.60951214051882       0.15563668171194
H        -3.08548564584106      -1.58825364133370       1.72811316281687
H        -1.36622803947005      -2.00908016293238       1.79147932732490
H         2.32190886300603       1.55739543136038      -2.18729301923898
H         1.86717453402226      -0.14831463217852      -2.32732034162988
H        -3.41708889642167      -3.22679682610198      -0.15290269971612
H        -1.69870208809393      -3.64897222626223      -0.08729226570479
H         3.84911779000709       0.98582558791419      -0.26612441061573
H         3.40544031380605      -0.72313561185766      -0.42124037182689
H        -1.98439087963123      -4.43211418783379       2.28531870607155
H        -3.70197551172687      -4.01485881081824       2.21631431140386
H         4.31756888355977      -0.74033253662506      -2.76615658907406
H         4.75791879818668       0.96474936854177      -2.60510104064778
H        -3.36609333580093      -6.46360225501309       1.80480743252524
H        -2.31187770265364      -6.10459047603462       0.41681106429187
H        -4.04023238281729      -5.68782891006729       0.35199640593845
H         6.32038147396633       0.39029816771711      -0.70457683368881
H         5.87603496156075      -1.32608538418578      -0.86033021820338
H         6.74358160623427      -0.50708143724497      -2.18210451560946
S        -0.92801549092538       5.36052223137368      -2.51135753694606
O        -0.07947032934574       6.35140002009180      -3.16636963163100
O        -1.24235061033772       5.58823474494064      -1.08380178979966
O        -0.62986164664323       3.93583974608055      -2.82463800489580
C        -2.59990303020681       5.58810450430835      -3.34102276616856
F        -2.51174305551289       5.43549915620684      -4.68626016670603
F        -3.12164084110485       6.81378861358033      -3.08559354363791
F        -3.51208797979036       4.65909793868081      -2.88752729433305
