43
C13H24F3NO2 optimized with DFTB in AMS.
N        -0.30265877137165      -0.21505815253146      -0.06845166588071
C        -1.32082603337493       0.09335675766854      -1.12648546905909
C        -0.47705545884642      -1.65866522725954       0.33243169883827
C         1.05540771737475      -0.05625919816587      -0.71104395670829
C        -0.44664733803736       0.66487629730047       1.13599217065909
C        -2.75227074128840      -0.18329850437552      -0.67927986790048
C        -1.88018761179092      -1.98961451894196       0.81409289781221
C        -2.91421972797860      -1.64213840502136      -0.25238291013622
C         2.24045201496061      -0.13829815041287       0.24745415337724
C        -0.28155759390846       2.15277589351151       0.86369847075212
C         3.53948461588533      -0.26583188391607      -0.56022189257138
C         4.73496878930818      -0.46804991387794       0.36728558522098
H        -1.07424394529333      -0.53999760229102      -1.98301648989965
H        -1.19988252612521       1.13757504548013      -1.42149181511067
H         0.25516018082527      -1.89477409290475       1.10291958195515
H        -0.24869280280424      -2.25694788826890      -0.54998878297685
H         1.05768917002121       0.90293311164477      -1.23582355091019
H         1.13185798417976      -0.85519857035595      -1.45212676098489
H        -1.43552720092353       0.48387504466038       1.55938510539367
H         0.29717952196271       0.32809364502141       1.86078811383238
H        -3.40490491103533       0.03429448804721      -1.52913210404031
H        -3.03685336109617       0.48757040946954       0.13631154578215
H        -2.11173771656861      -1.48205966541156       1.75482773996257
H        -1.88635477180815      -3.06748748435059       0.99954496025297
H        -3.92275789110479      -1.80114448263144       0.13570456631959
H        -2.77548755432868      -2.29309323582296      -1.12087496354908
H         2.14654691409087      -1.01031495006401       0.89583378083625
H         2.29450809208137       0.75435552516815       0.87734601080980
H        -0.35588849728196       2.67245027648615       1.81889664177754
H         0.68725229869069       2.38388270662042       0.42580759071326
H        -1.06549218359920       2.53162674685129       0.20989025155325
H         3.68369819791995       0.63538125188162      -1.16646656959984
H         3.46022864793589      -1.12216677987457      -1.23561366448254
H         4.61091021762730      -1.38382438341494       0.94569048770311
H         4.83625434474996       0.37157581037314       1.05663254730131
H         5.64885074983433      -0.54938348745490      -0.22078005787343
C         0.87539543985539      -4.95311799871383       0.05360076175672
O        -0.15760438870323      -4.33845817080754       0.30499615284923
O         1.17254626306825      -6.10172868965486      -0.15999291033685
C         2.16459066830335      -3.88610930197106      -0.00836031966812
F         3.37932061404917      -4.39015043210506      -0.23413597987641
F         2.25776690921615      -3.15872556891817       1.14350601051469
F         1.96191892762867      -2.93897548126600      -0.98550807390856
