30
C8H15BF4N2 optimized with ADF in AMS.
H         1.52912933705064      -1.00134511670687      -4.42238497332599
H        -0.11885799698997      -1.38440601452193      -3.84059389831964
H         1.28242514534783      -2.29414261630443      -3.16136662014698
C         0.93814989364928      -1.32609532839559      -3.55806709637701
H         2.63942047734516       1.59739706425276      -0.36612036015132
H         3.17653267619650       0.13833919182040      -2.67642315789194
H        -0.86189061469244      -0.44431741840875      -1.57661686657559
N         1.08407683973100      -0.33827101402164      -2.49153972539313
C         0.13972010081920      -0.03904868409396      -1.59363650691262
N         0.66593760474085       0.79185056692465      -0.68643532331017
C         1.99379693476971       0.99776871688540      -0.99391810992503
C         2.25662771550789       0.28720640625404      -2.12662363890353
C        -0.00362730008455       1.20893832773576       0.55277301082227
H         0.40583244161884       2.19533056038752       0.82165547860754
H        -1.07035116383477       1.34728593730307       0.31548900750123
C         0.19535926228058       0.18383312854795       1.66235231595497
H         1.27520945212073       0.02104172241523       1.81487330998403
H        -0.19847355068866      -0.78778683877444       1.32116121680012
C        -0.47407344135564       0.61309401722193       2.96367717846538
H        -0.06577627536097       1.58616113157356       3.29569904855077
H        -1.55594718346547       0.76815956803388       2.79384431552580
C        -0.27153354486098      -0.43217235585190       4.05879553590857
H         0.80076658336982      -0.58422620181246       4.25792407923129
H        -0.68735250635661      -1.40345898725002       3.74954999509240
H        -0.75691698818458      -0.12995861735703       4.99810248185470
B         1.32494363588906      -2.84815392648064      -0.24436951151537
F        -0.04406942488263      -2.40696380410369      -0.44370764450759
F         1.81526751355046      -3.33915323525099      -1.49547429805621
F         1.36167871732984      -3.83474324647644       0.74232321074029
F         2.10440033243988      -1.71363786754534       0.13541241237277
