38
C10H20F3NO3S optimized with ADF in AMS.
C         2.58970802537208       0.61250880011993       0.60198195138097
C         1.40088494002937       1.52206057339024       0.35660834719436
H         0.58630567748926      -0.42497435667991      -1.64693520214928
H         0.28559846219340      -1.51006573078932      -0.24615017610390
H         2.83968862485028      -0.49226522886966      -1.25338936059825
H         2.63816670750977      -1.54578543520673       0.17473800011064
H         2.68060195651058       0.33122793696229       1.66347567550636
H         3.51801526480303       1.12543003330842       0.31201798686899
H         1.17297155266674       2.23615258354446       1.16041317738373
H         1.51393509601613       2.02816021405604      -0.61426903230419
H        -1.05510154958631      -0.62539274090578       1.37724319442974
C        -0.27647672000458       0.13201993918839       1.52171731621194
H         0.56122013849373      -0.30260710358928       2.08056415809063
H        -0.68689541332236       0.99497594672258       2.06309119928621
C        -0.87517760704185       1.32089833967335      -0.57737254946606
H        -0.97669712962453       2.28903511794047      -0.05963519305408
H        -0.45801459555230       1.48030817930112      -1.58283593037217
H        -2.69552051239378       0.51952988702699       0.32287091937853
H        -3.78468532411336      -2.00775390861517      -2.31733260423468
C        -2.30743498007864      -0.65416506332275      -1.47529571638322
H        -1.77304661453755      -0.51594547571465      -2.42978135708010
H        -1.79146675251412      -1.46954565488620      -0.93892989621969
C        -3.75125324352453      -1.07354014310041      -1.73738863395159
H        -4.28460621793167      -0.30205422181278      -2.31510179808190
N         0.21377199793548       0.58204498880265       0.18862112223925
C         0.80251370774506      -0.60467401889854      -0.58436150870697
C         2.31272533546848      -0.60856270547971      -0.29789806328713
H        -4.30592362955899      -1.23563104570750      -0.79831370458602
C        -2.23422134003128       0.64628107652377      -0.67380032256361
H        -2.86056399000673       1.39938149768102      -1.18935009086189
S         1.33668907383902       1.13275951190282      -3.83809822304713
O         1.30561699689125       2.11081394368613      -4.92133381792547
O         0.04651111495776       0.46752437593105      -3.51926076741908
O         2.10171266193836       1.51302760180939      -2.62479779501197
C         2.35005224432987      -0.28138879217645      -4.53464658536900
F         3.60247715038028       0.12466903478097      -4.86396895217508
F         1.76930318163938      -0.80751314240645      -5.64086402489245
F         2.47474589516325      -1.29443133049080      -3.61505159453647
