38
C10H22BF4N optimized with ADF in AMS.
N        -0.09049124500076       0.01932499623595      -0.02212227382536
C        -1.34474999697777      -0.17670188875545      -0.84247379407134
C        -0.64492582853323       0.58019455067958       1.27953927392555
C        -2.38483405918776      -0.71745727361296       0.14352549643841
C        -1.90093145542436      -0.24435269656343       1.54267247315654
C         0.84686859067700       0.99980959189812      -0.68683232662034
C         0.59255742420153      -1.31107641378899       0.25492709308145
C         2.12649671689416       1.25464921641049       0.09063921699630
C         1.19860011671627      -2.00035934659789      -0.95430940113969
C         2.93441226215279       2.36583135334344      -0.57679185250374
C         1.89257742528723      -3.28061945304120      -0.47817028075937
H        -1.62382663195248       0.81966378249793      -1.21815357610638
H        -1.12493548341570      -0.83157795400081      -1.69470609386918
H         0.11497965417528       0.51520686644682       2.07161444926915
H        -0.88434023847022       1.63421745978154       1.06572531101333
H        -3.37995053806958      -0.32514578214009      -0.11117780811484
H        -2.44480679393273      -1.81475672408188       0.09393698667761
H        -1.65535512264647      -1.09088637184628       2.19989284372584
H        -2.65290103236705       0.36709653704809       2.06016301036175
H         1.05505733496579       0.60931212065685      -1.69535316690266
H         0.26600076187791       1.93076852688542      -0.79936136642404
H         1.36540486891449      -1.11887854594928       1.00971565265873
H        -0.15822009012631      -1.94943299058854       0.73925114537089
H         1.89694891815152       1.52379890348590       1.13365908002208
H         2.73105287945962       0.33705829308624       0.15312668735689
H         1.94540684876878      -1.34826888870814      -1.43689053684070
H         0.43578658213006      -2.24946117791703      -1.71282010992361
H         3.21524744823532       2.10044567916453      -1.60927826956913
H         2.36864986559129       3.31083593870766      -0.60816870300213
H         3.85935558990089       2.54747275754428      -0.01191953546251
H         2.64121126539193      -3.04565677980987       0.29378182339120
H         1.16729852999790      -3.98014661738447      -0.03486184030440
H         2.39136937569088      -3.78829976515322      -1.31579764677347
B         1.98180366273767      -0.79283671319559       3.44388813029428
F         0.72104610516880      -1.46492372444064       3.29211448616034
F         1.73686409465055       0.62181025818973       3.29725279762417
F         2.83585711841058      -1.19897030352971       2.35655371991879
F         2.56507936685620      -1.07785172675704       4.67377336836961
