47
C15H28N2O2 optimized with ForceField in AMS.
N         1.35744876650993       2.27899791391686       0.02476575022868
N        -0.84815059207187       2.43221229796076      -0.21820253686271
C         2.73431377149689       1.86193025034331      -0.23271960517658
C        -2.18493326059697       2.23437165826886      -0.77676191062533
C         3.00786722065590       0.47106793806467       0.35858102396171
C        -2.42613236861207       0.75486925094167      -1.11488979174018
C         2.07029540394691      -0.59641283557691      -0.22778460651108
C        -2.37147117915426      -0.13623461881041       0.13517063049880
C         0.32381156742952       2.18078411106030      -0.83298475705984
C         0.82388710986669       2.61514038807270       1.21673746295268
C        -0.54390929183593       2.71708019809121       1.06434614775486
C         2.46000154678132      -2.00087607203685       0.24200509965460
C        -2.56502933331040      -1.61204439807503      -0.22838978113468
C         1.50028018979604      -3.04845478456938      -0.31561590704342
C        -2.49064656690898      -2.49637762307647       1.01339003283370
H         3.43334449993766       2.60073745357487       0.21488150566097
H         2.92521016788265       1.84021654949437      -1.32843878863243
H        -2.28685712529410       2.84384532282719      -1.70040764818838
H        -2.95723875206014       2.58107429349359      -0.05556369824265
H         2.88747522783449       0.50731876535583       1.46333549074113
H         4.06305169244452       0.19962238242725       0.13785554920288
H        -3.42674797219283       0.65826187053979      -1.58936805332368
H        -1.66683277363943       0.41541182480140      -1.85262072610676
H         2.10858756242805      -0.55692190811742      -1.33833808746553
H         1.02795337451151      -0.38858383439896       0.09637119423845
H        -3.16655526103752       0.17847052590730       0.84591928926352
H        -1.38653700997822      -0.01991096870452       0.63605261358016
H         0.41481067566595       1.85040599948122      -1.85986660925339
H         1.37909464640258       2.71521604260003       2.13996375276726
H        -1.26638764349627       2.91053149523748       1.84635891386903
H         2.43630904026297      -2.04522909701343       1.35253498771495
H         3.49042341619743      -2.23815150697241      -0.10063573984343
H        -3.55486416642950      -1.75353660307747      -0.71399873603535
H        -1.77423853147500      -1.92868156471992      -0.94277751060765
H         1.52323886998433      -3.04128028565944      -1.42611305287707
H         0.46516705966659      -2.84431062644295       0.02877612034141
H         1.79944476732734      -4.05626262646405       0.04100719348645
H        -3.31188858613685      -2.24185342409227       1.71634152676184
H        -1.51572714059186      -2.36062834375825       1.52830006345344
H        -2.59069059959172      -3.56220020194780       0.71879158045917
C         5.13947945546456      -1.05456217266483      -4.93272081227681
C         4.74665667717635      -1.47280999552887      -3.55081051509565
O         4.49797289642953      -2.64391565214353      -3.31569330100369
O         4.67598304923793      -0.64757688021006      -2.65476552678531
H         6.09060215179855      -1.55167771149535      -5.21719802176062
H         4.34653525688343      -1.34729460588904      -5.65263744817741
H         5.28061318339424       0.04635433038495      -4.98452491859602
