34
C8H18F6NP optimized with ADF in AMS.
N         0.46183276898787       0.14854122382253       0.31407488710553
C        -0.50438554824517       1.06143130440433      -0.41777732193900
C        -0.01731136820686      -1.29666146522311       0.19152554994027
C        -1.94749983459908       0.90138472036866       0.03493504090779
C        -1.45802588609641      -1.47838347857134       0.63255093025125
C         1.81284474846497       0.29544502957814      -0.37056890546043
C        -2.40960211128362      -0.54826998110331      -0.11442233892265
C         0.58073994263291       0.56178201222115       1.75202092339606
C         2.93355132552678      -0.54683835472771       0.20171698264471
H        -0.41277286214008       0.80114105816116      -1.48515517911255
H        -0.13568680841691       2.08847534956539      -0.27473227637310
H         0.64935140182299      -1.91229334308120       0.80798724519911
H         0.10798757453228      -1.54868303976080      -0.87560262300594
H        -2.55711395747064       1.58212683771187      -0.58327282530720
H        -2.06545463799576       1.23866093356673       1.07857158923940
H        -1.52628569008024      -1.34785224674822       1.72413744853825
H        -1.70288575628175      -2.53758512946988       0.45439092331552
H         1.63256507903545       0.04260897212148      -1.42746959460313
H         2.05338385249115       1.36937819400492      -0.31154934783550
H        -3.43766095715911      -0.66094383970127       0.26456555657842
H        -2.43079739665450      -0.81331344213657      -1.18890250089556
H        -0.40258323933152       0.51571215421607       2.22677428668149
H         1.23626768507593      -0.14652489623590       2.27022513148637
H         0.97358532393702       1.58764424536056       1.77523746824472
H         3.83547241864002      -0.34058092708433      -0.39492782112518
H         3.15758919656606      -0.30296132342083       1.24793996113149
H         2.72626211395458      -1.62291158448261       0.14331753404646
P         0.87671418367268      -3.00985832333045       3.64278503845642
F         1.92821359203229      -4.26317598982297       3.63780848066973
F         1.91706823975556      -2.15403711872673       2.60334749435596
F         0.12344615673153      -3.62401859903089       2.28489070552641
F        -0.17342110076904      -1.69901840940993       3.58057174557984
F        -0.16710774288218      -3.80880013483685       4.61262610578269
F         1.63473571125280      -2.32209421499814       4.92471074520236
