44
C12H24F3NO3S optimized with ForceField in AMS.
N         2.00235394125811       0.44544788784750       0.09659010127469
C         2.24846182627882      -0.85182818293592       0.78587643742309
C         3.11297276917819       0.59272702152503      -0.89271615865218
C         0.69428840841185       0.44172566825020      -0.62802188728951
C         3.67096023541118      -1.27505258297104       0.48147095119342
C         3.93065096822481      -0.68726423589464      -0.87843139046263
C         2.05915050341055       1.56668501446783       1.07009380724006
C        -0.54760833297576       0.25039694375399       0.27431758687338
C        -1.81060339088500       0.09200504553513      -0.58179218658544
C        -3.05638122827152      -0.09969684684345       0.28986240600935
C        -4.31468128858147      -0.22115432812419      -0.57732891680471
C        -5.56231551656222      -0.40214042029367       0.28140800869984
H         1.58186342104509      -1.65669831326129       0.39935159289603
H         2.09018778206399      -0.79841624998157       1.88721963542980
H         3.79681088151275       1.43800978943444      -0.64414198482144
H         2.75669917464608       0.79027445615857      -1.93018584312491
H         0.69878659026468      -0.36886321599537      -1.39398291400794
H         0.56868039998857       1.39978386649152      -1.18347470753201
H         3.78255466693065      -2.38137179121611       0.47819659975942
H         4.36532521719804      -0.82849463445925       1.22652551036733
H         5.01108962617293      -0.49107089502473      -1.03824627155903
H         3.55780538459823      -1.38065811200252      -1.66499795805896
H         1.33150459003650       1.42936058984555       1.89781767068941
H         3.06537289628057       1.63406645460008       1.54213383342207
H         1.84516180667972       2.53737399915014       0.56950554919592
H        -0.43445285036276      -0.64879993098981       0.91549903736816
H        -0.68012190345603       1.13697929019034       0.92930600836308
H        -1.69493179194061      -0.78965209517200      -1.25045875500318
H        -1.93901988386881       0.99921840894328      -1.21290009275869
H        -3.16447829971062       0.76933757406735       0.97587269512035
H        -2.93938263785110      -1.02183810727171       0.90133164155692
H        -4.43408527406359       0.69602674429557      -1.19468875545333
H        -4.21723925657572      -1.09396150800335      -1.25951880433482
H        -5.69514376756896       0.46983166854435       0.95678376218074
H        -6.45539218151619      -0.48303466856908      -0.37348086665135
H        -5.48137415669349      -1.32880048445677       0.88858827092174
S         8.28283119554265       0.52278589910197       0.00150685320989
O         7.58486106459568       1.84285606550125       0.35994698378579
O         9.65344356180564       0.98279792917390      -0.51567104034592
O         7.56077442227742       0.08195369993860      -1.27945942688253
C         8.33493859780642      -0.71322844172525       1.32994739423307
F         7.05070405242416      -0.98911181395793       1.75653701204193
F         9.07406959238432      -0.22176826049973       2.38845199065050
F         8.92123380945624      -1.87224152746719       0.85983225192257
