37
C9H20F6NP optimized with ADF in AMS.
N         0.74208648693891      -0.21526461074856      -0.34549956462686
C        -0.46466443929424       0.65130635491922      -0.63629580729784
C         0.26758220678027      -1.60234430709901       0.08222230812723
C        -1.43685215323085       0.73475249955355       0.52685258775114
C        -0.74141240924347      -1.56637826326894       1.21823591608940
C         1.61503059887814       0.37110388424490       0.75513347882272
C         1.51956394948508      -0.33259955064416      -1.64785582868517
C        -1.92915236198638      -0.65792376566382       0.91787206722412
C         2.15554489441575       1.75795191911316       0.48167768534499
C         2.79035075963208      -1.15325335342935      -1.58767617651757
H        -0.95814781678461       0.18699378416689      -1.50596321350064
H        -0.09058907112593       1.63720284407411      -0.94376471838375
H         1.16242201174028      -2.16668879352862       0.37896102439619
H        -0.17918175757554      -2.04386530783297      -0.82426720519200
H        -2.27325433435588       1.37972166458324       0.21076927452230
H        -0.96542473662601       1.23338453971390       1.39002674205626
H        -0.23888584803659      -1.27539732101931       2.15204851786382
H        -1.06583132902889      -2.60760077639399       1.37692725521973
H         1.01384864205080       0.35833139035770       1.66900145562077
H         2.42564923266724      -0.34584986413571       0.92393268658457
H         0.80867971458345      -0.76700037706896      -2.36802905195020
H         1.72691846760134       0.69922846893261      -1.96725429375834
H        -2.59669160044564      -0.59788222856737       1.79152725488602
H        -2.52498296749474      -1.07644797992817       0.08563798826498
H         2.79036460927610       2.02031474400178       1.34176106565105
H         2.79573265016517       1.80281500782821      -0.41079812536746
H         1.37266958758838       2.52648296209467       0.40265777898040
H         3.25167900967507      -1.11357464687100      -2.58655108464405
H         3.51866686307626      -0.76722901189375      -0.86266288949616
H         2.60506951366572      -2.20585679859368      -1.34039274373134
P         3.41489018109721      -2.46463946114399       2.71264030068948
F         3.70867342359963      -2.21636660759375       4.30195122637386
F         1.87340670936061      -1.81738571824846       2.89550456410309
F         3.96751912090161      -0.92570995800134       2.35179555247192
F         3.07809529153496      -2.66460672962281       1.06302524159447
F         4.91565240686946      -3.06861029037864       2.46845335996166
F         2.80653863684523      -3.96034515130758       2.99883595795122
