52
C16H33NO2 optimized with ADF in AMS.
N        -0.28305960002838       1.24919113961181       0.05630965687596
C         0.55615968254789       1.88669578895155       1.15158447181153
C        -0.90416049447058       2.44615070848202      -0.62102309055850
C         0.59763307352548       0.51108988767368      -0.94005266535736
C        -1.33009714164728       0.34241765068789       0.67370250608563
C         1.15922159361078       3.12984387035299       0.50730911996142
C         0.18915748759721       3.51843870645338      -0.64136435232305
C         1.38977331174828      -0.63717501055622      -0.31891729974405
C        -2.22444683596713      -0.36720919398278      -0.32349828836592
C         2.87549688632491      -0.33395242004661      -0.09406400546538
C        -3.29977057955925      -1.15454279939328       0.43061909559657
C         3.51377998364743      -1.35404634658026       0.84755481565855
C        -4.25592577873865      -1.90043620237579      -0.49712261376352
C         4.99270309094567      -1.08254384056312       1.10770214667906
C        -5.32014725868528      -2.68064755952513       0.27162900476662
H         1.24816156537312       1.12804364138253       1.53759583456232
H        -0.13367260330081       2.08063678193139       1.99120909162775
H        -1.74949586026673       2.74592007995229       0.01525891578664
H        -1.27821242177221       2.15399246310448      -1.61061994636626
H         1.26588165474423       1.26997610467441      -1.37495214740169
H        -0.07969286332869       0.17343732335526      -1.73670215415646
H        -1.90446498044810       0.99017838841163       1.35284841604766
H        -0.77268813331925      -0.34150177318231       1.34185139696759
H         2.16667105902950       2.93204865482333       0.11054441216878
H         1.25737090161720       3.92938191260191       1.25557146568224
H        -0.25714475539895       4.51257726411819      -0.49331586973658
H         0.70628003983818       3.53905089523562      -1.61175587190555
H         1.29156151986585      -1.52744535681167      -0.96399799063197
H         0.95161281009068      -0.90397850924783       0.65863646806187
H        -1.64468887774872      -1.07505146524416      -0.94111766754333
H        -2.71726233275651       0.34591555491900      -1.00975752510675
H         2.98863814990657       0.67019641159422       0.35310307829166
H         3.41394524817336      -0.30513843367818      -1.06093582429378
H        -3.87534176558770      -0.46297706870851       1.07239579368458
H        -2.80697658683418      -1.87028532608809       1.11273972151015
H         3.38752242233610      -2.36711312226040       0.42343008308526
H         2.94469838752287      -1.33842787638134       1.79429595603224
H        -3.67764567267505      -2.59128080469291      -1.13771443931490
H        -4.74274253532944      -1.17708879129921      -1.17735338028788
H         5.41222006751397      -1.80882512894033       1.82147966781997
H         5.58365508289278      -1.14236905669227       0.17943446321223
H         5.13791300781540      -0.07661916267796       1.53410369151544
H        -6.00440108705007      -3.21120769226955      -0.40797980085513
H        -4.85450274532536      -3.42599481055287       0.93569452533807
H        -5.92252303154989      -2.00488023851261       0.89976744605846
C         0.37108259244177      -0.63644417284435       5.12207893162515
C         0.05622368697061      -0.08457751861627       3.72524908399489
O         0.60550078522891      -0.70932176662975       2.75055957822508
O        -0.71336778839180       0.91539973056469       3.64806864033871
H         1.45314762462988      -0.80601377313830       5.22716664351331
H         0.01329676723058       0.04049294992685       5.90968516407323
H        -0.11961727648918      -1.61564429711706       5.24030673171944
