32
C10H19ClN2 optimized with DFTB in AMS.
N         0.40477818120453      -1.66063327031308       0.20439826468932
N        -1.63865202499056      -1.03921380761716      -0.08073805872246
C         1.78524731740321      -1.70043320142812       0.67584795075474
C         2.62848034021429      -0.63389928481497      -0.03401538832744
C        -2.88834466648235      -0.29584948456823       0.03582357669594
C        -0.55412479403190      -0.86288471973073       0.67298575482250
C         2.40525667163675       0.76495112407367       0.54599370199926
C        -0.05776225644531      -2.30899486659480      -0.90514607472211
C        -1.34651562952082      -1.91694410703210      -1.08472282454963
C        -2.81255799726798       1.03564655910870      -0.72285571598751
C         3.16193194240638       1.81420050017022      -0.26446307627603
C        -1.99591269209672       2.08702709115223       0.02104643894257
H         1.78006280469567      -1.54687147832385       1.75921918374450
H         2.17151190132139      -2.70026391537748       0.46149367134700
H         2.37386365655591      -0.63081480644281      -1.09631806427043
H         3.68062202978986      -0.91545887713840       0.07100446715102
H        -3.09016393133399      -0.13296904498325       1.09927087537470
H        -3.67791758757109      -0.92649124683142      -0.38129554003493
H        -0.48498087161983      -0.23413565047107       1.54255673062603
H         1.33801118028604       1.00091204781732       0.51335929220020
H         2.72970612655595       0.78556007422509       1.59337423038701
H         0.56128426604383      -2.97725455988230      -1.47678975773254
H        -2.06101499801701      -2.17809027159580      -1.84491056337335
H        -2.36670302927166       0.86063008997624      -1.70507791504716
H        -3.83881146841625       1.38936909728548      -0.85952513401072
H         2.78683939477304       1.82811201684993      -1.28779256954466
H         4.23067427738474       1.59461135993533      -0.28112546571701
H         3.01356404799084       2.80038714709795       0.17562391043613
H        -0.94780493963393       1.79285137701914       0.05517187099001
H        -2.36540750192039       2.22413900839171       1.03926418093382
H        -2.06315583039442       3.03655776479784      -0.50867858773195
Cl        0.23063634165178       0.55661844924472      -2.01302846464683
