42
C10H22F2N2O4S2 optimized with ForceField in AMS.
N        -0.11838002656187       0.02674829237565      -0.07249019181641
C        -1.03396758422026       0.55332127321492      -1.13719657622969
C        -0.64205894908796      -1.29513885197336       0.40578085890102
C         1.21661044631823      -0.19532412031062      -0.72859985933289
C        -2.50678946101141       0.65620203792215      -0.70671118779333
C        -2.11534307843000      -1.26207522134544       0.85945252300838
C        -0.01106449621527       0.97467028777250       1.09108527093598
C        -3.01916326980417      -0.69948304354155      -0.23249146673011
C         2.35547987889036      -0.67370890255472       0.20552484338168
C         0.60366712110309       2.35147450306650       0.77819075094807
C         3.63446941403352      -0.92913442289081      -0.58778129349725
H        -1.00684088689685      -0.11518613401484      -2.02968058584522
H        -0.70028090613205       1.54483812643707      -1.50821696129699
H        -0.05093757547866      -1.67023492523759       1.26868939024240
H        -0.55811716990804      -2.06234374104353      -0.39843951355035
H         1.55604167565407       0.73180098784018      -1.24248411112925
H         1.11578807131233      -0.95018911282987      -1.54308793954647
H        -3.11436044146651       0.98194209553031      -1.57856753211136
H        -2.64331844919896       1.42285311343885       0.08342936235344
H        -2.23032621085101      -0.67193380648278       1.79240623600639
H        -2.44210271732787      -2.29813057689605       1.09470859872539
H        -1.00225361847409       1.17023161189206       1.54374171992188
H         0.58030498052323       0.51636982281222       1.91318856306053
H        -4.05292555333450      -0.58983965197800       0.16006752790496
H        -3.04958937034817      -1.40725958554915      -1.09027913850528
H         2.58524477656957       0.09187670885969       0.97424692657402
H         2.08309559015724      -1.61988993684565       0.71395688862818
H         0.64858528648247       2.94228597299947       1.71743585438200
H         1.64066741351572       2.26933490917077       0.39780073881554
H        -0.01924633283563       2.92615993694218       0.06497975620900
H         4.43926864670340      -1.26208340963148       0.10115618955226
H         3.46796363635904      -1.72424076582221      -1.34532708100594
H         3.96403000817590       0.00026346473772      -1.09923604832163
N         8.12527596629693      -0.22391234456258      -1.68388995714212
S         7.65585305727606       1.08859820090949      -0.82626431542400
S         9.60893234267948      -0.30375520663232      -2.37004546215136
F         7.25345304269219       2.32170159588426      -1.88483691192422
F        10.75712480511442      -0.53751790118534      -1.17401916927666
O         6.45897409906340       0.74170404842733       0.01111845216811
O         8.77651520757991       1.55271447492805       0.06079696739277
O         9.91092044512815       0.98005596217154      -3.09044781255265
O         9.65526996365458      -1.45126820910501      -3.33788473632882
