46
C14H29NO2 optimized with DFTB in AMS.
N        -0.62166933801382       0.29579183890015       0.00385552712442
C        -1.30618986503762      -0.32502269479436      -1.17500446838022
C        -1.65567421947428       0.63246228979413       1.04788332811562
C         0.41131978925718      -0.61068760871490       0.61002964370228
C         0.00340943721688       1.57790322837685      -0.48314251679011
C        -2.11306376076040      -1.56317758511241      -0.80207599712278
C        -2.52494853161788      -0.55319787283955       1.44233185452990
C        -3.18095280233675      -1.20916572739576       0.23112610354031
C         1.50742564594190      -1.07654256506099      -0.33973435825235
C         0.91975772517717       2.28268409024444       0.51811047437593
C         2.55123219662219      -1.85462300720063       0.47358838131206
C         1.22494154373070       3.69338185456490       0.01828249425668
C         3.66884720706331      -2.38368628875519      -0.42161493365976
H        -0.54498018188523      -0.56780020038998      -1.91917665893191
H        -1.97036220125233       0.43721287233637      -1.59402919016752
H        -2.27136040765825       1.43751376120776       0.63575556425519
H        -1.10884693854760       0.98798639176819       1.92966483469907
H        -0.10747784059514      -1.47133752809993       1.03028960281397
H         0.83639749292854      -0.05809013055179       1.45022900104644
H        -0.82406831523752       2.23795208179330      -0.75974926937737
H         0.56190324258400       1.34032728980244      -1.39308781900891
H        -1.45579958672769      -2.34579376354000      -0.41537266413235
H        -2.58048889795504      -1.94022939183291      -1.71611285646232
H        -3.29363562679141      -0.17218191600382       2.11968038217231
H        -1.92821137813234      -1.27891283382526       2.00093414295289
H        -3.91027410260660      -0.52602930273105      -0.21885145749353
H        -3.70867435244291      -2.11486036892142       0.53923004531205
H         1.99428456519960      -0.22891370021604      -0.83068899203726
H         1.09977348889972      -1.72989753332971      -1.11806969080637
H         0.45646381475688       2.33603733199481       1.50466545260390
H         1.85555517698706       1.72949309768183       0.62348673492176
H         2.06197013135964      -2.69017249397241       0.98335543614038
H         2.97443268632288      -1.19738087064470       1.23911209494007
H         1.90410372482383       4.18500075903355       0.71378551584965
H         1.69575503049730       3.66402899398394      -0.96586938316318
H         0.31050844236485       4.28438174201952      -0.04989538953816
H         4.17851306668069      -1.56119429466803      -0.92594315219573
H         3.26761426257404      -3.05966498150319      -1.17838720662809
H         4.39804904973018      -2.92802204868250       0.17832777743967
C         0.65160188088187      -0.16946756044568       5.32034669498160
C         0.22687314665183      -0.12809373845624       3.83480306108009
O         0.36916100111922       0.97165224589272       3.24517236836427
O        -0.20269058039746      -1.18768635299656       3.33933882322416
H         1.66754208511886      -0.56224546103304       5.37003642521955
H         0.63473925913574       0.83140370778992       5.74694031503859
H        -0.00833311205582      -0.83162244906679       5.87772483003508
