39
C11H18F2N2O4S2 optimized with ForceField in AMS.
N         2.36671314681996       0.03204435560238      -0.52226032662403
C        -1.44857190500457       0.05367762861731      -0.70456235124711
C        -0.04905328618665       0.02113200991215      -0.08174554171763
C        -2.52715487252186      -0.00784464480361       0.38333933787643
C         1.04289882951065       0.07936804644124      -1.15392683081707
C        -3.93249400039665       0.01344211723161      -0.22700131007968
C        -5.00238891883828      -0.05148961779877       0.85939614902263
C         2.94690471633979      -1.17809275019597      -0.25587281522008
C         2.99355243416334       1.19510598283524      -0.16711849985640
C         4.19450961118305      -1.24410135187719       0.36861485817023
C         4.24035179800066       1.16480432388904       0.46232806288029
C         4.84309174385611      -0.06380799538272       0.72808935821490
H        -1.56629111122881      -0.81350716557743      -1.39132498656612
H        -1.56938651464146       0.99048186167723      -1.29217781945743
H         0.07074828001466       0.88766408022946       0.60528385195052
H         0.07082705779859      -0.91378056173723       0.50869688833552
H        -2.39874140766185      -0.94080385937529       0.97560141942670
H        -2.41014769628020       0.86267322269282       1.06614185227823
H         0.93446634114781       1.01188010779900      -1.75211566641330
H         0.92593578819518      -0.77203562727948      -1.86155210743566
H        -4.07201786990625       0.94654992714206      -0.81518991624029
H        -4.05846307567252      -0.85564450644944      -0.90888299288608
H        -4.91368412812463       0.82139065338814       1.54087533689985
H        -6.00962488447892      -0.03657985032746       0.39248879731158
H        -4.89784000315680      -0.98768065601621       1.44835612802772
H         2.44204548686896      -2.10008256197762      -0.51850526925924
H         2.52661117616145       2.15401055030464      -0.35912048779725
H         4.65011411637319      -2.20343066852672       0.57731877477881
H         4.73105470363360       2.08672419846726       0.74630629538719
H         5.80758030676650      -0.10118406320498       1.21746032453138
N         1.83979424740861      -2.60269506648575      -4.45850235551292
S         3.07163064934606      -3.61586341932883      -4.09443426516276
S         2.12118503491385      -1.09822792900155      -5.03536654900692
F         3.79266272780888      -3.11831012495290      -2.66869734972523
F         2.73321573412950      -1.20923395315051      -6.59023636970986
O         2.54129782933276      -5.01098138764631      -3.92538937421249
O         4.09875264108390      -3.59398518360340      -5.19130089837013
O         3.12496266644400      -0.39607986737836      -4.16490569052528
O         0.83714544419838      -0.31913520145183      -5.05628328984904
