39
C11H21BF4N2 optimized with ForceField in AMS.
N        -1.28614667068617       1.31236241815282      -0.23243847691773
N        -2.67649585710768      -0.38575292938297       0.12450370028554
C         1.09951841398788       1.94569697269791      -0.20799569996090
C         1.57789742382781       0.49688701738683      -0.37804717685467
C        -0.27350503401699       2.16212336172707      -0.85626050420038
C         2.98256479247391       0.29753249241640       0.19718472447465
C         3.42432491238705      -1.16202913134375       0.03933648573314
C        -1.81569486889486       0.18277942903521      -0.74144186234715
C        -1.82266903299828       1.45836620333568       0.99601334865028
C        -2.68849840988144       0.40605427082503       1.21620819555559
C        -3.38996262986685      -1.64763396564317      -0.05140003370759
C         4.82339343800243      -1.37925706942873       0.60258826105315
C        -4.85439274413659      -1.38623518657948      -0.37853647583980
H         1.82803276354840       2.63552968322039      -0.68821177085120
H         1.04355170698015       2.20069552318535       0.87309042556179
H         1.58268741106034       0.23560604152101      -1.45960218627207
H         0.87675976631441      -0.18763963999199       0.14792553071575
H        -0.57190828865124       3.22745478931444      -0.75200590808128
H        -0.20755946929623       1.93983446305329      -1.94439723663019
H         2.98150692658396       0.56922802828973       1.27647978527803
H         3.69788394638655       0.96180985308780      -0.33681809438449
H         3.42377084924743      -1.44013882872250      -1.03760289558622
H         2.71396017371073      -1.82972412550614       0.57517210240854
H        -1.55547692563873      -0.23317363161546      -1.70739130053202
H        -1.58667935404752       2.25645075882642       1.68796269015217
H        -3.26308704914538       0.22028429715851       2.11419759488407
H        -2.93200670615485      -2.23087658210907      -0.87995396071072
H        -3.31235006441937      -2.25413827062514       0.87671431165435
H         4.84423420424827      -1.14024701942026       1.68751132133102
H         5.55668890149494      -0.73795142750189       0.06870414344201
H         5.11439181660082      -2.44188876854435       0.46578309323623
H        -5.33998619086926      -0.82940459913858       0.45091611127783
H        -5.38228330230518      -2.35300288029817      -0.52238691965343
H        -4.93169072379813      -0.79126253839416      -1.31378970453621
B         8.12237775906659      -1.84014099064371       2.40220671491934
F         7.71321539959972      -1.57948302673438       3.73700264831442
F         7.88262784204409      -0.69202210621069       1.60137319188570
F         7.38664544780288      -2.94078946462502       1.88850887710046
F         9.50833396034641      -2.14872981387429       2.38238867185198
