48
C14H25F3N2O3S optimized with ForceField in AMS.
N         1.36795633022536       2.27468494879582       0.04609495379686
N        -0.83639074617122       2.43088914602121      -0.21497814725070
C         2.74992868896770       1.86577462237531      -0.20177332246845
C        -2.17068381746267       2.23538735629676      -0.78215511459034
C         3.01920382286163       0.45808896155728       0.35048669267434
C        -2.41769418441771       0.75612539637897      -1.11485204875274
C         2.05547659835718      -0.58657247667578      -0.23238550076954
C        -2.33743801566831      -0.13639624614601       0.13247596134786
C         0.34099643832987       2.18245513199907      -0.82155063995360
C         0.82319296266594       2.59751514196526       1.23647194847792
C        -0.54263250687870       2.70313779539419       1.07262751381322
C         2.40889575580453      -1.99687773809438       0.24690472725034
C        -2.53741412825027      -1.61084349514494      -0.23069578374412
C         1.42725910396766      -3.02399057030408      -0.30787778482765
C        -2.45486779269323      -2.49625867424707       1.00960480840196
H         3.44055669253349       2.59014463875064       0.28173703907217
H         2.96021289583912       1.87950073380969      -1.29382134506793
H        -2.26647912169877       2.84192851839197      -1.70829179728454
H        -2.94674167185359       2.58651707531433      -0.06683845308169
H         2.92577883032636       0.47223814010933       1.45826262991217
H         4.06491358438172       0.17724425269790       0.09653219025919
H        -3.42880377726889       0.65932564639958      -1.56700088784295
H        -1.67328648872748       0.41828498852622      -1.86856085517785
H         2.09007720865941      -0.54822986546325      -1.34274838275550
H         1.01925074662064      -0.35486658098794       0.09145352902802
H        -3.11745159922591       0.17737517392483       0.86054782173080
H        -1.34284340794976      -0.02221252770950       0.61375917152964
H         0.44032316160439       1.85392744897241      -1.84890970231682
H         1.36758993572827       2.68354592770341       2.16754957604727
H        -1.27084951411256       2.88610102319283       1.85171948320274
H         2.37657894823195      -2.03220741141615       1.35769275515158
H         3.43506533749727      -2.26220382156728      -0.08490572741125
H        -3.53160883567135      -1.74975134004208      -0.70822493242286
H        -1.75315741853035      -1.92701495714482      -0.95288015510912
H         1.45326752225847      -3.02424460558418      -1.41839169881393
H         0.39787966450903      -2.79062737547811       0.03179314143825
H         1.69850934538456      -4.03594055041432       0.05856151076317
H        -3.27264434266535      -2.24274339105357       1.71688742250110
H        -1.47829614501402      -2.35936834383848       1.52114108110067
H        -2.55472107224135      -3.56172888854120       0.71380072027997
S         6.17785090605547      -2.07846487281953      -4.11145195814442
O         5.49927537553999      -3.28582516177545      -4.77498524821603
O         6.09638487397364      -0.99519906781777      -5.19690493187562
O         7.66342965220398      -2.46711983973058      -4.11627286484476
C         5.50108571291520      -1.60591649492225      -2.49553515032711
F         5.63825339545899      -2.65792117425721      -1.61089025150841
F         4.16439970402217      -1.29437721461519      -2.63706541482720
F         6.18012451697746      -0.50535177968587      -2.00982113909413
