60
C16H34F2N2O4S2 optimized with DFTB in AMS.
N         0.49332776500217       1.63368998465984       0.84306481270460
C         0.23675520671107       2.79821687614166      -0.07541755713268
C         0.96616096443016       2.26568455461531       2.12112187229490
C        -0.78523589145177       0.89576888274798       1.11508287010542
C         1.56012626717681       0.75034258020230       0.25886015552158
C        -0.08713854947283       4.00218005954003       0.81168273306396
C         0.16971722359188       3.55368193164318       2.25411096716444
C        -1.30781609891589       0.06292172393801      -0.05437428905127
C         1.97692755720780      -0.39570027460380       1.17638983608833
C        -2.71321712535476      -0.45428958758710       0.27636880271981
C         2.99311374755682      -1.28724865542308       0.45081142826843
C        -3.25831294996785      -1.32424182032026      -0.86033404434651
C         3.64086129717365      -2.27275087220397       1.42698921438274
C        -4.66205169326434      -1.84445767114004      -0.53493833115837
C         4.66643439915415      -3.15871857664105       0.71398862246571
C        -5.20797216874295      -2.71349500296616      -1.66631212888226
C         5.33180197381446      -4.12993423263121       1.68744215714527
H         1.14501864069915       2.97142184056680      -0.65147182879880
H        -0.57173546649211       2.54543144239404      -0.76088396817454
H         0.81928671827175       1.57394100099632       2.94996128878035
H         2.03254866775302       2.48266031206343       2.01038384060446
H        -0.61380573497705       0.24698742197775       1.97703444285237
H        -1.52531795762877       1.64936266702879       1.39611850201673
H         1.18490334964078       0.37490918270814      -0.69556802670779
H         2.42278783445451       1.39067109017447       0.06044531346300
H         0.57265220515308       4.83219364006867       0.55147044024174
H        -1.12108512853850       4.32425142175633       0.67634641474388
H        -0.76870797191486       3.38475245705660       2.78816629679408
H         0.75324938620264       4.29667655604043       2.79934935204020
H        -1.34934540425394       0.66006943234617      -0.96910330671175
H        -0.64831500422600      -0.78932188420041      -0.23579139785175
H         2.43816537917343       0.00878098734878       2.08069173790677
H         1.11229131495450      -0.99615614928334       1.47349085912428
H        -2.67599859644720      -1.03935547615183       1.20133483056829
H        -3.38412917060716       0.39505065186216       0.44372534969379
H         3.77045049353387      -0.66079571455281       0.00550331244034
H         2.49099858692321      -1.82955784439368      -0.35792185717781
H        -3.28984634938507      -0.73668992366253      -1.78415851445506
H        -2.58293976158394      -2.17045444166719      -1.02552746711319
H         4.13776050616333      -1.70932110709222       2.22303247455506
H         2.86776283119206      -2.89842578342646       1.88769222838011
H        -5.33455445560949      -0.99604891513955      -0.36921113130301
H        -4.62711050595359      -2.42940664629478       0.39028472140050
H         4.17142976954748      -3.72293750479105      -0.08434330447819
H         5.43132436774731      -2.52604323351902       0.25234202488423
H        -5.26866501852374      -2.14119245533315      -2.59289788687144
H        -6.20578830366038      -3.07140966089489      -1.41278724565406
H        -4.56088828885617      -3.57571528630854      -1.83237583547183
H         4.58753992192359      -4.78243688581144       2.14686451202038
H         6.05851047781710      -4.74877481752251       1.16054549294453
H         5.84844829071189      -3.58307128383517       2.47700376219255
N         3.99738050102655       3.06830467159959       2.10227863647144
S         4.89482503357178       1.83010540241633       1.64791304987307
S         3.84590899492323       4.27294479349843       1.08282964765155
F         6.40622042779038       2.34403170776036       1.80076919532026
F         3.09492284011428       3.57045884816372      -0.21691732608056
O         4.74053904758330       0.81685359115926       2.64370822482289
O         4.77227640434939       1.44669686518319       0.27332675091542
O         5.02922478698433       4.83554143955786       0.53348205030578
O         2.82502927460348       5.13258764108135       1.59944478188759
