41
C11H22F3NO3S optimized with DFTB in AMS.
N        -0.35542110659105       0.23534958373979       0.15639750149849
C        -1.07667015473093       0.38228713529735      -1.15062807376770
C        -1.10456285131290      -0.75607199091887       1.00968360875968
C         1.00322448041712      -0.33417132658049      -0.16389364549464
C        -2.53034865432796       0.80841402762417      -0.98114100066041
C        -2.57516683215547      -0.40880262191157       1.19522854440455
C        -0.23532274863561       1.54611613624630       0.88651197716294
C        -3.28699568201942      -0.21828206944038      -0.14015560989528
C         1.92639442681451      -0.55892628567814       1.03301948992577
C         0.46832466475200       2.64986343953435       0.11532592617605
C         3.24433309656003      -1.15529856186563       0.54170901681864
H        -1.03620657748494      -0.59281991023017      -1.64527482786260
H        -0.52653360088830       1.10142925774846      -1.76031808577621
H        -0.61110987179610      -0.78948521716961       1.98177308748752
H        -1.00436424239467      -1.72856918865695       0.51881524453080
H         1.47521492379173       0.34644336945344      -0.87747129449008
H         0.82609347830845      -1.28602400223288      -0.67334852253855
H        -2.97079484578888       0.87786804111291      -1.97951395864634
H        -2.59116536683052       1.79700892676312      -0.51983853977389
H        -2.67735786141769       0.48723790800198       1.81100248277495
H        -3.02772374858440      -1.23593337682700       1.74751770324694
H        -1.24155650830976       1.86611550596988       1.15392096744869
H         0.29977019862068       1.33748016785484       1.81273471766676
H        -4.30923405691285       0.12620646770606       0.03107486161231
H        -3.33323700234520      -1.16956296488611      -0.68136416852990
H         2.12727992138261       0.38085486923322       1.54956625036886
H         1.46717352425280      -1.24030865975972       1.75094184426394
H         0.53395952886511       3.51015162647556       0.78148290707540
H         1.48004918986885       2.37020867760505      -0.17403090465617
H        -0.08575371859041       2.95236388241971      -0.77263413588867
H         3.90511077453362      -1.31890499982881       1.39188194823900
H         3.07465363660003      -2.11096241198826       0.04374208370865
H         3.73798691487114      -0.47941040009440      -0.15804834439526
S        -0.52319099070484       0.75191284734765       4.33031215402757
O        -0.07927640998688       1.50202585634315       5.47180964033270
O         0.53863239511442       0.10841361279146       3.55338156203839
O        -1.51946741062636       1.40627133929118       3.48986139350949
C        -1.45172801679406      -0.70434452778351       5.00422597906005
F        -2.55707297111557      -0.33996615822294       5.63907737162784
F        -0.71152549465723      -1.43355264994308       5.82682568061553
F        -1.81488871805112      -1.49258750164111       3.97586872629417
