40
C10H15F6N3O4S2 optimized with ForceField in AMS.
N        -0.68762988276860      -0.90066777331690       0.41732527515517
N         1.50525788658074      -0.54348162585359       0.33048110951166
C        -2.09308240551914      -0.78330483313304       0.80342782699431
C        -2.89596651284194      -0.02686182382455      -0.26189865042979
C         0.35796276326206      -0.26125367734456       0.97735321472905
C        -0.18470513249386      -1.61244760175090      -0.61193417640001
C         2.82464606024698       0.01943986706910       0.60359906117956
C         1.17602381980671      -1.38760499282104      -0.66799390911830
C        -2.37410548883580       1.39412065146292      -0.47132334090241
C         3.13339762829292       1.13690774931299      -0.38396992243519
H        -2.17976060999048      -0.25161537007833       1.77666586317324
H        -2.52313955066222      -1.79940539402544       0.93666335640986
H        -2.85714952106561      -0.57956338177018      -1.22525221069868
H        -3.95865605945496       0.02588073881625       0.05940183693679
H         0.27949819014207       0.42505847229019       1.81141711590077
H        -0.76560494974513      -2.23242157340255      -1.28251465724078
H         2.85517315570191       0.43201702332712       1.63562970624054
H         3.59610096996145      -0.77679970629749       0.52540463153109
H         1.87016643928717      -1.79640494478117      -1.39095231355061
H        -1.34285181335768       1.37152426407452      -0.88299652282404
H        -2.37392686173385       1.95370207013634       0.48838941466228
H        -3.02715891232829       1.92537485728651      -1.19469619396076
H         3.13901564993894       0.74213431206187      -1.42191574255801
H         4.12864253183870       1.57418832124004      -0.15818320380516
H         2.36367935161743       1.93181612724109      -0.29992410848211
N         1.36157359594264       5.96112970094287       2.43198795967762
S         0.70268978012760       7.42887257188008       2.74744608407572
S         0.52939197926716       4.75187451771700       1.70129680007822
C         0.03846100314276       7.42804212070783       4.39984463927805
C         0.90751873896712       4.75523006965815      -0.03851651726328
O         1.77146121616595       8.48069006298671       2.65744378939404
O        -0.39285087048621       7.74068668186657       1.76581355530126
O        -0.95100612612625       4.93178411196186       1.89419949322480
O         0.95542424810563       3.43507191731148       2.28548137681104
F        -0.49653601927733       8.66950260527779       4.68572958258316
F         1.04693499305310       7.14640309778729       5.30138337111183
F        -0.94988554661838       6.46872664115560       4.50533605287965
F         0.23483964701155       3.72165095440809      -0.66149296703482
F         2.26785166234813       4.58958209789492      -0.21451967974062
F         0.51891233379701       5.95687939162455      -0.59809998789514
