25
C5H12F3NO3S optimized with DFTB in AMS.
N         0.16993528384017       0.27335407584022       0.28028892583618
C        -1.03320048170457      -0.47395181430130       0.73220307062492
C         1.14004475748334       0.36163095897069       1.40956197947334
C        -0.23690015480601       1.63477380905632      -0.16707585582606
C         0.80825972983218      -0.43858638432848      -0.85616881699477
H        -0.73028010512839      -1.46486556276551       1.06526299872488
H        -1.48841901238966       0.07277817143945       1.55530852260224
H        -1.73484399140867      -0.55521181310157      -0.09603539169075
H         1.94523737969168       1.03769714465795       1.13155947259256
H         0.63366159794496       0.75557926060867       2.28886945680811
H         1.52830073053904      -0.63414979212641       1.61491740260779
H         0.65481514496209       2.20262604637289      -0.42054871604725
H        -0.89164072220146       1.54054642371160      -1.03190183004790
H        -0.75406989844981       2.13269564577349       0.64761919767032
H         1.69344829380979       0.11634705040909      -1.16107242511083
H         1.09028171808782      -1.44025849848024      -0.53691317938872
H         0.10331302592685      -0.49754252482953      -1.68364131648196
S         0.59514631396670       3.27686834828088       3.19335380731218
O         0.88296131219751       4.50906086908993       3.86874509295838
O         0.91660442451910       2.05546731141508       3.90925813731231
O         0.96018583963070       3.23044746656742       1.77852269336761
C        -1.26526205131992       3.18755554940093       3.09246119715001
F        -1.75783423874176       4.00900856759710       2.16814821423854
F        -1.88115985616272       3.42010106921742       4.23716997991379
F        -1.60393009811896       1.92988164972393       2.69752860929507
