27
C7H11F3N2O3S optimized with DFTB in AMS.
N        -0.83859898218218       0.53476748844269      -0.44516015280130
N         1.16598277630319       1.09373599079743       0.09859669368957
C        -2.17431574705134      -0.05605693977897      -0.38654247154008
C         0.13284915203148       0.32970966513130       0.44243578354745
C        -0.43013676146726       1.47962868214519      -1.34814211301020
C         0.83482106992861       1.83409265730293      -1.00292859687349
C        -3.02130603148467       0.65682214600492       0.66077699463610
C         2.36722577533168       1.26657252404982       0.89884237611519
H        -2.61643844266160       0.03841690376318      -1.38178507167490
H        -2.06310692428166      -1.11705725615234      -0.14479559577566
H         0.09805626626892      -0.34733738718686       1.27739548536406
H        -1.06616367957783       1.82074844695190      -2.14511723399239
H         1.51405739801456       2.54571249755153      -1.43825274865696
H        -2.61667695091981       0.49172439478977       1.65733909281917
H        -4.03851237629438       0.27047492047090       0.61849890994830
H        -3.03546803211768       1.72913459719233       0.47338417713945
H         2.50661166274968       0.38493644208292       1.52049082229733
H         3.22109886297234       1.41094519618822       0.23892040337444
H         2.22803011114419       2.13908522037279       1.53847205141368
S        -0.73685578738993       2.66873036681092       3.04320901183800
O        -2.14825572922156       2.36748893716231       2.95572119732865
O         0.12810680045317       1.56483236458657       2.61886907545498
O        -0.29548098559398       3.36431700503099       4.21987990927387
C        -0.48560708288350       3.89519708755288       1.65804432737192
F        -0.85483372638406       5.12452691613452       1.97191257984663
F        -1.18367157435333       3.51984574054652       0.57165316686639
F         0.80425783556693       3.93313937945565       1.28007345109984
