44
C12H26BF4N optimized with DFTB in AMS.
N        -0.52265004386504      -0.22853778516391      -0.31570780108999
C        -0.90746714562914       1.19805420392891      -0.59251181102566
C        -1.76224487743187      -1.07174216285650      -0.26331610888157
C         0.11955386065067      -0.32126890980003       1.04825253141870
C        -1.74563914458071       1.35086107670471      -1.85361667823256
C        -2.60150571383935      -0.97209270292538      -1.53240567627925
C        -2.99677498715294       0.47851855588720      -1.80390579055467
C         0.41171759074539      -0.75636239409099      -1.34486741359090
C         1.44040652061618       0.43966245091440       1.21710602666284
C         2.67448747806032      -0.46521275509443       1.12472797349743
C         3.95046096475394       0.37665561724340       1.23929240937405
C         5.22066674857415      -0.44432341682665       0.99403245730884
C         5.34089517626835      -0.91099366659296      -0.45791676531479
H         0.01067769865071       1.77798106538035      -0.69725854273682
H        -1.46413790016386       1.54771768711415       0.28167916989535
H        -2.34755310763783      -0.73025240004971       0.59523382699716
H        -1.44893211970484      -2.10379266898998      -0.08840212702639
H        -0.62339941396867       0.05914955512532       1.75415462698080
H         0.26482344974488      -1.38709925365209       1.24882522440636
H        -2.02756989813295       2.40396717346898      -1.92540735582789
H        -1.14302937133089       1.11229827822025      -2.73219732464543
H        -2.05465666868285      -1.38096668776465      -2.38553265745195
H        -3.49440744529813      -1.58523517190004      -1.38431145018791
H        -3.66515204353615       0.82926580325673      -1.01031338156761
H        -3.53324995997974       0.54118756185455      -2.75322330023276
H         1.32772044495085      -0.17176046371501      -1.32772117099676
H         0.62149318916973      -1.80092060887905      -1.12168333482006
H        -0.03580557340722      -0.66413307652878      -2.32933636385050
H         1.53171930058543       1.24010719714334       0.48223319585404
H         1.41921271115673       0.91058151511747       2.20470246595729
H         2.64411798580950      -1.21856190405942       1.92035332462326
H         2.67210567395673      -0.98927179100370       0.16656068298373
H         3.99636505769333       0.82476184193916       2.23748639514633
H         3.90433285717446       1.18682408914496       0.50628817415612
H         5.24151291582646      -1.31041697412800       1.66548017275139
H         6.08307445817881       0.18484998103191       1.23724347452206
H         4.60598065273111      -1.68510213956306      -0.68193373777878
H         5.17819332447874      -0.07526624044568      -1.13861404576372
H         6.33510946933955      -1.32205187806344      -0.63567487975219
B         2.16401456245954       2.05634904003140      -2.10639476395444
F         1.66760482371110       2.75718081143611      -0.97805488358390
F         1.03409302768193       1.52882541430638      -2.79073160810991
F         2.90656103585394       0.95248188928386      -1.61641980954286
F         2.91423068511970       2.85608624915993      -2.91294800713652
