54
C14H26F6N2O4S2 optimized with ForceField in AMS.
N         0.98305911051426      -0.30924184310034      -0.00277131300358
C         2.05823197358052       0.06472450617994      -0.97341722646264
C         1.64662869169210      -1.22854680362672       0.97226019561498
C         0.49174425809021       0.90728032774055       0.72396925066831
C        -0.11113448742620      -1.02788166384393      -0.73341423100385
C         3.26474937646474      -0.81574628317698      -0.70895478428708
C         3.14423727297454      -1.15121705143139       0.75045264731655
C        -0.24346348160853       1.94031485232569      -0.16323556641940
C        -1.30027553995027      -1.46941478087829       0.15143872963634
C        -0.56763775783482       3.20702073501652       0.63952461503310
C        -2.29554907455495      -2.30288123469264      -0.66579434230846
C        -1.30288202829402       4.23570922201266      -0.21527985403620
C        -3.47913394956545      -2.74597039960014       0.18689234779329
H         2.39389065768762       1.11931187838094      -0.84690890820364
H         1.74727037382920      -0.03763261777549      -2.03875918726355
H         1.35261857169297      -2.29188787281889       0.81605666656743
H         1.41049547923579      -0.99146902641583       2.03520414196787
H        -0.18889479387084       0.61717335330747       1.55476711627810
H         1.35304087709542       1.41696477619585       1.21616435968318
H        -0.50690892172933      -0.39732824664548      -1.56004032668645
H         0.30876985986263      -1.93324362606222      -1.23145998979339
H         3.19600026923279      -1.74551663602436      -1.31689879896218
H         4.21871580795264      -0.29056978201951      -0.93363466215715
H         3.57673412599365      -0.32990865823342       1.36443958615644
H         3.65030193057495      -2.11037260196696       0.99614745108631
H         0.37954488599470       2.21889530186134      -1.03885772915376
H        -1.19798001265721       1.51250703222237      -0.53425179050683
H        -0.94424919445938      -2.07449957953022       1.01169943738972
H        -1.83471097588928      -0.58023206438314       0.54552251260218
H         0.37309466505276       3.66328592617631       1.01785328424778
H        -1.20571942759629       2.94297904980305       1.51107858903987
H        -2.67424253705047      -1.70023559282090      -1.51995996844670
H        -1.78812706662152      -3.20644342029119      -1.06872305745414
H        -2.25864145560295       3.81343491205255      -0.59241526991852
H        -0.67187001076796       4.54374278173103      -1.07604828916174
H        -1.52984975958505       5.13397251841880       0.39717378569002
H        -4.01165226058431      -1.86158986519269       0.59671595757712
H        -3.12674436604903      -3.38715197510710       1.02213909158454
H        -4.18963999782086      -3.33116027590284      -0.43419668699161
N        -5.07259931255036      -2.88292166444068       6.14277302516506
S        -4.31522933846021      -1.95800443946997       7.26464457410011
S        -6.09876604063087      -2.26631543169513       5.02211236830852
C        -5.31003725499643      -1.90882040176372       8.74035294444616
C        -5.22000566104379      -2.06957847209416       3.48858450001541
O        -2.98479911588953      -2.57239449095072       7.59716960698135
O        -4.10758861855322      -0.56068729418965       6.74946074084884
O        -6.64533196291689      -0.93787420625881       5.46624411645396
O        -7.23230359040260      -3.22896357876310       4.80675464833209
F        -4.67599546533974      -1.14930065563082       9.70491273104348
F        -5.49152090394019      -3.19373066984235       9.21557373700798
F        -6.53999917630143      -1.34997102926452       8.45186351083287
F        -6.06367617301055      -1.54086485325765       2.53030500703502
F        -4.76228210778942      -3.30277352203185       3.06767819657014
F        -4.14629715567750      -1.22019130473124       3.67481992534672
