46
C14H26F3NO2 optimized with ADF in AMS.
N        -0.63653102235484       0.46773508114359      -0.03816660522898
C        -1.23373093834691      -0.42855326644677      -1.10178121094068
C        -1.74835489164104       0.93787663513026       0.89734283483249
C         0.43146430682761      -0.24817267767300       0.77861170677893
C        -0.04977118746922       1.67620093375641      -0.75237483951625
C        -2.00088315488603      -1.60885020316065      -0.52924598722281
C        -2.54254562372366      -0.21454563274542       1.48713132763995
C        -3.10892160578666      -1.14188087453134       0.41473297950027
C         1.65021466956186      -0.70139125451948      -0.00215866363793
C         0.74800734801383       2.63464886843641       0.11284250092266
C         2.66795010998176      -1.31528131638401       0.96558765941029
C         1.11093320098293       3.88063001862880      -0.69189036369621
C         3.88280905697794      -1.88329614040528       0.23953170434320
H        -0.40935489832380      -0.74963961811811      -1.75328396142621
H        -1.90806186057828       0.21565306433046      -1.69054769493520
H        -2.39580776778475       1.58035907142863       0.27726958796912
H        -1.26481020343399       1.51665409323428       1.70375487224824
H        -0.06147447066692      -1.11451580354248       1.23695323537226
H         0.68153729411840       0.45423475152933       1.59926152209342
H        -0.91348769232572       2.18901122396593      -1.20740727860435
H         0.56829700217986       1.27669173484824      -1.57208395850824
H        -1.31224709267275      -2.29654269595617      -0.01054265663517
H        -2.41967521869159      -2.17283391252377      -1.37971297214701
H        -3.35158118027482       0.23716231181120       2.08442948214126
H        -1.91894156543699      -0.76877361072497       2.20741976574386
H        -3.87607271724487      -0.60156882843225      -0.17099824458243
H        -3.60896483210713      -2.00895796321536       0.87527237890958
H         2.13066801568119       0.14701975655555      -0.51840334146767
H         1.38847687513067      -1.44937388428521      -0.77275268452497
H         0.19066030076198       2.90974739755364       1.01919509195049
H         1.66407786507558       2.15020177101166       0.48247477114041
H         2.17860146199719      -2.11128288732658       1.55523530476631
H         2.98034701367354      -0.54676169755940       1.69062280824077
H         1.70778510869378       4.56316330375085      -0.06975473395646
H         1.70493905812244       3.63367907031889      -1.58678388925094
H         0.21037376603517       4.42469895013946      -1.01799380055604
H         4.39215353009777      -1.10339350033223      -0.34916267872495
H         3.59367472543444      -2.69273156477797      -0.45050927708278
H         4.61208626929029      -2.29306585073132       0.95395385551319
C         0.77064517523724       1.78758113801772       4.09590662478996
O         0.29185375634774       1.95628454143048       5.22087786504683
O         0.23542884254805       1.76793055839987       2.94379436970205
C         2.31464836506438       1.49122168498185       4.05846509218585
F         2.53936909533223       0.12889028514149       4.14595191829633
F         3.00579996741664       2.07099539330715       5.07288276969975
F         2.93211359236546       1.89260090043963       2.88655420750782
