31
C7H9F6N3O4S2 optimized with ForceField in AMS.
N         1.10923323371580       0.01150711609562      -0.00289159071761
N        -1.11281586166383       0.00872478106348      -0.00169856187081
C        -0.00067963902549      -0.75105971421012      -0.00347183228885
C         0.68738701866601       1.29139808815287      -0.00196792345652
C        -0.69403031132656       1.28966842853720      -0.00131939760842
C         2.49144058220935      -0.44995504708487      -0.00302257564562
C        -2.49436167491422      -0.45501671327220      -0.00056106045360
H         0.00189083809271      -1.83282761003472      -0.00704823241611
H         1.33450549998570       2.15917152917415      -0.00242156896791
H        -1.34329423183535       2.15588277719952      -0.00104953596639
H         2.53039665736160      -1.56041933698261      -0.00515839541878
H         3.01180058217308      -0.07106897696054      -0.90749593844362
H         3.01066372637544      -0.07482702659597       0.90371483388163
H        -3.01493829056381      -0.07635665110075       0.90400304586797
H        -3.01487985517868      -0.08063858628449      -0.90687701631911
H        -2.53189291786783      -1.56543178499163       0.00227926903844
N         0.46424591043610      -7.80481554109619      -0.37970037464150
S        -0.64968444802073      -6.75032873945967       0.19749483103517
S         1.51785710688882      -8.60472242753662       0.58823813612391
C         0.02820093701555      -5.10421960477383       0.16889453505881
C         0.90348465661748     -10.24902644412770       0.88658909871456
O        -1.86530332742025      -6.78799020931800      -0.68451851495415
O        -1.03928222910403      -7.10622292317891       1.60571107010989
O         1.69093671453518      -7.88847960603518       1.89919051022709
O         2.84514348748641      -8.70457042172226      -0.10841618225185
F        -0.91834437468429      -4.21113894960897       0.63295679875363
F         0.37819965392963      -4.77047114339982      -1.12577056798942
F         1.14866047558452      -5.04446183977940       0.97532289162878
F         1.77825312414606     -10.92541259895412       1.71545172318601
F         0.79366587585002     -10.92601640204659      -0.31319738936288
F        -0.33829047896436     -10.18093231576768       1.48896685274725
