43
C13H24F3NO2 optimized with ForceField in AMS.
N        -0.55317322827182       0.09855779238086      -0.09497417310882
C        -1.55183824543244       0.54966850355042      -1.11865768269891
C        -0.89781019297856      -1.29795654331328       0.33048636162019
C         0.78372344080977       0.07711145293078      -0.78530755985442
C        -0.53863512870158       1.00055984825322       1.10896916088078
C        -3.01491345236976       0.45775961363223      -0.65470714847014
C        -2.35452700167159      -1.47119289263657       0.80995804083090
C        -3.35195425681960      -0.96770038008102      -0.22969892960363
C         2.00074604627041      -0.29605467475203       0.09871982573848
C        -0.12544741973634       2.46046952607677       0.84625297780195
C         3.28514054423093      -0.33285046530795      -0.74232896498133
C         4.49445867228537      -0.73049997473890       0.10051997143276
H        -1.46717999776992      -0.07806813586006      -2.03685896145260
H        -1.34829166827488       1.58693186966987      -1.45737744274790
H        -0.24420057033350      -1.63256725979923       1.16452389647924
H        -0.73670486799272      -2.01223983124426      -0.50943315109566
H         0.99069618815932       1.06227608383263      -1.25970823869728
H         0.75721674705900      -0.64608648086160      -1.63359897422360
H        -1.53268962507874       1.03823903031129       1.59531452234107
H         0.13395686271520       0.59146227051432       1.89355720015060
H        -3.67717857358398       0.74414863346183      -1.50048998035000
H        -3.22242772039265       1.17034531865958       0.16988351313705
H        -2.51851864554693      -0.95230602384348       1.77726838459685
H        -2.54484241258778      -2.55135205917931       0.99213764977253
H        -4.37819153170510      -0.99432197580281       0.19657511899907
H        -3.33288943924706      -1.63639220613195      -1.11860677527343
H         1.85777891372916      -1.29648884634756       0.55520474576189
H         2.14157966888876       0.45242828250723       0.90575786344197
H        -0.13177649950142       3.00982909131149       1.81142164144336
H         0.90060564102731       2.53704804283452       0.43569593008671
H        -0.84308281421869       2.97604035450613       0.17785586645499
H         3.47035122896371       0.66984599816743      -1.18599582623237
H         3.17241768821923      -1.06666232336990      -1.57022228012059
H         4.35207842306678      -1.74573868073909       0.52805767393711
H         4.64566751277939      -0.00532920208624       0.92614638644571
H         5.40553271136186      -0.73769152159691      -0.53459688143897
C         4.93981653450301       4.51586724262755       2.18719158666623
O         5.37117908049800       5.22450646175851       1.29149601942891
O         5.16492277995895       4.81037138035418       3.35019764218776
C         4.14462016730867       3.28456687180288       1.86866829885742
F         4.82187869931536       2.17202318145494       2.33064391659102
F         3.95498184598129       3.16470215503253       0.50240477993891
F         2.91123574658353       3.35586588246095       2.48956886242619
