28
C10H15NO2 optimized with ForceField in AMS.
N        -0.48616985419137      -0.00065393492550      -0.42350678385616
C         0.94297763774140      -0.00023192899584      -0.75377247222311
C         1.77493918032222       0.00099319405093       0.53177585492003
C         3.26753294543041       0.00227774157464       0.22609857363440
C        -1.14170159371888       1.18659776232957      -0.24590231257046
C        -1.14110448138240      -1.18827376968787      -0.24649220729313
C        -2.48908346070455       1.20423140269966       0.12105746037863
C        -2.48848510918126      -1.20667822269045       0.12048126986710
C        -3.16360520231646      -0.00142275396086       0.30640133752315
H         1.19674482298161      -0.89370775862285      -1.36709584971722
H         1.19561146732091       0.89298616169198      -1.36770741402353
H         1.52928401016583      -0.90081734359892       1.13322359851548
H         1.52743544837051       0.90195714731505       1.13354645055021
H         3.53796851934159      -0.90419227339104      -0.35221976545321
H         3.84229088467276       0.00168208365962       1.17581622242430
H         3.54105819113015       0.90687105653307      -0.35706929671410
H        -0.62073912310887       2.12704473424263      -0.37753707207655
H        -0.61962991688384      -2.12837339306878      -0.37857362239195
H        -3.00295063549335       2.14546194865783       0.26417910752646
H        -3.00190065194015      -2.14819712374685       0.26317429211086
H        -4.20615047881147      -0.00171936095772       0.59537206044164
C         4.68558115411283      -3.06346728641619      -2.03500009802880
C         5.40969917821012      -3.29192285624061      -0.74618838149702
O         6.36818630332546      -2.59656880775021      -0.45167675914916
O         5.05106773894637      -4.18101663039635       0.00880988728139
H         4.69067437299626      -1.98315351119964      -2.29228361153313
H         5.18661852051583      -3.63050588649947      -2.84641917777875
H         3.63109899304836      -3.40208873210582      -1.95022346116737
