61
C17H24F18NP optimized with DFTB in AMS.
N         2.33926082412926       0.40168796031881      -1.04776789386402
C         2.68924924535095      -0.98912916075329      -1.49338831843273
C         3.21149441269067       1.32465306396823      -1.86476410494042
C         0.89300443548768       0.72772924345520      -1.29452627280411
C         4.16515583656980      -0.93145944349150      -1.85767850882559
C         4.38905220202366       0.49252464725997      -2.37440829478891
C         2.67027247458940       0.56496966747569       0.39098782729597
C        -0.09084763989131      -0.19477055786668      -0.58194068573524
C        -1.50336964932565       0.08952741671985      -1.11036956116516
C        -2.53518536648028      -0.82960734459159      -0.45171861861938
C        -3.94000483414123      -0.55742619611438      -0.99908395061029
C        -4.97633067355445      -1.47375559538913      -0.35147146350339
H         2.08166829244134      -1.22792981596509      -2.36534388710919
H         2.47095711814416      -1.69351058080612      -0.69070663619079
H         3.51863549593793       2.15940081140382      -1.23305494520072
H         2.61902101417439       1.71176697046360      -2.69282764197082
H         0.73557338266049       0.65822123137756      -2.37068786084268
H         0.74468292475309       1.76561133821813      -0.98566636286820
H         4.39133959876201      -1.67352313956470      -2.62440371416397
H         4.78896893123145      -1.13303237630249      -0.98301059376711
H         5.33863945562135       0.89582031920324      -2.01904725808411
H         4.39759688332585       0.50507249544340      -3.46596280096250
H         2.11533573234524      -0.16496479553844       0.97646559781325
H         3.73821286968684       0.40815427965600       0.52780375434682
H         2.40054879365091       1.57183971007122       0.70474349227933
H         0.16141687388892      -1.24005247700494      -0.77886884088739
H        -0.06273684214234      -0.03423225252564       0.50007464145938
H        -1.51711118697791      -0.06080627325878      -2.19417495776549
H        -1.76037185781817       1.13552446306246      -0.91353410470380
H        -2.52573893464780      -0.67363861951698       0.63294385534143
H        -2.26462948911338      -1.87394222994858      -0.64153358050672
H        -4.20754363261470       0.48756334129487      -0.80976719512052
H        -3.94248862511631      -0.71262040631435      -2.08272939084896
H        -5.00285239411999      -1.31970161649435       0.72835315479274
H        -5.96577413898841      -1.26221305227293      -0.75696827075327
H        -4.73706798763347      -2.51991794919300      -0.54707316701925
P         1.54883364604933      -0.21768269737165      -5.66679178593467
F         0.42789785137698      -1.38813005580310      -5.27416636949433
F         1.90190294927601       0.08561639464603      -4.00137382922356
F         1.26489906472510      -0.47278116308437      -7.28223414225666
C         2.83657148345674      -1.69478424386137      -5.49886269034697
C         0.02121043669752       1.04936912865390      -5.42354374459689
C         2.82560458905558       1.25120797113846      -6.18045564133998
C         2.90165508913407      -2.78855663437335      -6.59506403687294
C         0.12584956564267       2.52411186099247      -4.92568057148951
C         4.26683960715440       1.12247053149968      -6.75076300848509
F         2.56375087334217      -2.34996210060279      -4.34481739894164
F         4.08386114382677      -1.20050334179239      -5.34176268097887
F        -0.72984739331738       0.50025881976377      -4.43077809181539
F        -0.73375725138490       1.06774322176518      -6.52758706431705
F         2.95496927022793       2.08071103074876      -5.11200434911183
F         2.13048209350614       1.92688793097659      -7.11764897419922
F         3.79948921044901      -3.71902976121576      -6.25509392918275
F         3.26070022121549      -2.28567852326452      -7.76967616327050
F         1.72482248132569      -3.38741228448104      -6.73238820500499
F        -1.10655576023217       2.96969278280007      -4.66774788283670
F         0.79975261734836       2.57131424254106      -3.75876852928554
F         0.68938014948588       3.37687419217815      -5.76058197397722
F         5.15418730032874       1.00601620202072      -5.75814239975035
F         4.58553475375812       2.21718537958150      -7.43889710336464
F         4.39655937985170       0.07944279356495      -7.56147071419683
