24
C6H15NO2 optimized with DFTB in AMS.
N        -0.04422812377744       0.19235650913919       0.43839348051851
C        -0.04666849402003      -0.96972595265905       1.36786333657970
C        -0.28928640839177       1.44359641618456       1.20552494998835
C        -1.10390309545240       0.01644047536721      -0.58609232623573
C         1.28943899358965       0.28243027505142      -0.21699772341903
H         0.81288915770251      -0.85909596709318       2.04146417241838
H        -0.98470916406197      -0.98451859335404       1.91892635211758
H         0.06323057256581      -1.88371896401449       0.78690943707645
H        -0.37445289188573       2.27261218628666       0.50523664288055
H        -1.20946795520926       1.33778868344288       1.77690499668596
H         0.57837473907401       1.60349625174187       1.86718986078842
H        -1.08350506130791       0.86499723248814      -1.26773643572440
H        -0.91842590932682      -0.90443137129206      -1.13629061960779
H        -2.07115852115640      -0.03684639559854      -0.08920525624595
H         1.30975798554809       1.15996755829016      -0.85997030213675
H         2.04032127888945       0.36269878207046       0.57289361459306
H         1.45731595663338      -0.62003940402713      -0.80150150668668
C         3.98549671886564       0.75903128241660       3.92049448783363
C         2.90131718504243       0.63502424489431       2.82838606900740
O         2.67718764352228      -0.50856240388413       2.37094054211428
O         2.32696877260358       1.69084378670624       2.48567334566942
H         4.71706880232404       1.50579847139503       3.61612030471068
H         3.51427020394472       1.09356991707402       4.84407528950969
H         4.47514383478417      -0.19869015542612       4.08272825196427
