44
C12H26BF4N optimized with ADF in AMS.
N         0.97184019603932       0.47694911995881       0.21981904461242
C         2.05733689986879       1.03767479913469      -0.69159206142633
C         1.77444989396377      -0.12655656426961       1.36337881366001
C         0.07278584050717       1.57268505662567       0.75015768918302
C         0.20388740388178      -0.58711479408137      -0.52916968893623
C         3.22195963095605       0.05072436002473      -0.60376747343537
C         3.01571608304231      -0.73329287511085       0.71663338990362
C        -0.69728614643413       2.32104542824478      -0.32162087886404
C        -0.96283263336752      -1.19920563886465       0.22650606753012
C        -1.36290453633783       3.55782057982959       0.28856312256294
C        -1.57650439186661      -2.35155866993236      -0.57121710227986
C        -2.13563916251911       4.36582266430435      -0.74900799482105
C        -2.76034024530049      -2.98186105443135       0.15568101567086
H         2.33049116811207       2.01754408328791      -0.27506550470870
H         1.64031374097698       1.15330473300046      -1.70021129812031
H         1.14017758758772      -0.83961913052222       1.90395749708139
H         2.03804039441435       0.71420157948210       2.02151225313180
H        -0.59976307093452       1.10185142822098       1.48223756936173
H         0.73869649179573       2.25860190315356       1.29190109583534
H        -0.15018551436399      -0.11918068047677      -1.45952721760091
H         0.93771699017130      -1.36074065424607      -0.80169629906977
H         3.24877290747711      -0.62853040524530      -1.46884664146263
H         4.16016256859996       0.62042245458959      -0.57958565103386
H         3.86963014821448      -0.60115814565990       1.39508767767065
H         2.89306721389145      -1.81045448892900       0.52517213602892
H        -0.00746579862413       2.65759461053643      -1.11344874270663
H        -1.46477175594719       1.68234991685601      -0.79440406250176
H        -0.63891669595760      -1.57833072034709       1.20996490235620
H        -1.73941239368682      -0.43956864624763       0.41250030831615
H        -0.57814689104612       4.18360642093790       0.74659872498249
H        -2.04051469268851       3.24753504346937       1.10429327724925
H        -1.90035145593149      -1.98076914043665      -1.56032399161794
H        -0.80403177389482      -3.11787406188301      -0.76070380268342
H        -2.93333357656202       3.76376924872347      -1.21370422419457
H        -1.46541057274723       4.71670982575144      -1.55010651656050
H        -2.60220696779707       5.25100233920425      -0.29125860437710
H        -3.55569012222868      -2.24069464893918       0.33145171275399
H        -2.45250637685067      -3.38356306114199       1.13408635510835
H        -3.19042099841918      -3.80795777932465      -0.42938299580789
B         3.11186662088510       3.20713478326782       1.99882896041136
F         3.88199067958802       4.18433230326673       2.61677519103525
F         2.36235717626409       3.75559570123082       0.89333334654348
F         2.16211832214892       2.62883873996974       2.91386753962397
F         3.92422313251926       2.14088325011843       1.48669824119555
