38
C8H20F2N2O4S2 optimized with ADF in AMS.
N         0.34293187265065      -0.07600307459544      -0.08626793731056
C        -0.65395279898776      -0.21859539523420       1.04971274777775
C        -0.32130366972176       0.47016315081675      -1.34382994403369
C         0.92547922846633      -1.44760689709869      -0.40758050175011
C         1.44104354549014       0.89163409880409       0.34653597712418
C        -1.91827833053374      -0.99293396318416       0.72912310551199
C        -0.96426965213948       1.83442227768058      -1.19437570764232
C         2.06244371070508      -1.45343871751964      -1.40995619106698
C         2.28834177455674       0.43045759324713       1.51277160864854
H        -0.10497754027430      -0.70409093200545       1.86779517796427
H        -0.89535331870295       0.80420602314474       1.37236636944065
H         0.47384888898288       0.53398899968552      -2.09735772106639
H        -1.05014169029801      -0.29335311416287      -1.65201429137188
H         1.24678392805288      -1.86701865229577       0.55685505944759
H         0.07982591678123      -2.04682437049906      -0.77327996002248
H         2.06746624913963       1.06733389395466      -0.53472939103961
H         0.92767372362106       1.83204775875805       0.58593714245668
H        -2.51473127596891      -1.05665996106572       1.65221823379716
H        -2.53936090818782      -0.49395524311232      -0.02686360632792
H        -1.71559406846502      -2.02298582525851       0.40544490270367
H        -1.47145898097089       2.05948622914388      -2.14528522884581
H        -1.72076653971538       1.88295631983107      -0.39735823007240
H        -0.21461182287774       2.62347009140303      -1.04748989502896
H         2.39957586741527      -2.49608337156003      -1.51744279142831
H         1.76070660424769      -1.09832434014295      -2.40289640824155
H         2.92367546038355      -0.85368322809195      -1.08811213085996
H         3.03167464252767       1.22166249524092       1.69051193286275
H         1.71825477845365       0.28779910496502       2.44197147846652
H         2.86098200676542      -0.47795283512389       1.28216601229450
N         4.38184274035969       2.58375176408665      -2.86320831440139
S         5.05247546911480       1.46148923241077      -1.92958785182144
S         2.80349294981092       2.63641863896633      -3.06183391449086
F         4.90273425426083       0.08046113144884      -2.84040369961725
F         2.25268754992473       3.29301268042476      -1.60719037029810
O         6.47343527166263       1.70731029868637      -1.86494988067767
O         4.30975475526616       1.12382042341677      -0.71675716465418
O         2.11575061161430       1.34429667959248      -3.08397173324579
O         2.47370850028986       3.64896017034227      -4.03820950568063
