37
C9H20F6NP optimized with ADF in AMS.
C         2.83371289800189       0.26701230679888       2.39493164314261
C         2.09775221844192       1.34334462277285       1.58808934861839
H         1.94507029410391      -0.66101677210161      -0.14296561527190
H         0.46981945472887      -1.39747739913956       0.60814824294063
H         2.98003336381703      -1.80168762727783       1.64839846171728
H         1.62659176811224      -1.53933994922672       2.77470522691578
H         2.74225172356631       0.42386502198554       3.47921025550441
H         3.89754708207195       0.30778918117045       2.12244592025579
H         1.79938360284184       2.23539554888183       2.15588724683887
H         2.69390754229441       1.63081285970388       0.71169876794750
H        -1.08577142085733       0.09576792079797       1.74411702090931
C        -0.21387073968563       0.65272774985130       2.10719775976730
H         0.18382940539149       0.17283714969093       3.00830810529947
H        -0.50126486800669       1.68714530812737       2.33486701464530
C         0.34161909653781       1.39294113284542      -0.18707713326567
H        -0.03440609658342       2.36006489823731       0.18164917622142
H         1.23645114433222       1.56876831306026      -0.80014721710715
H        -1.26036823205742      -0.09146305132229      -0.36643820306013
H        -0.82229037673829      -1.23332834579687      -3.94739281983556
C        -0.15990020396622      -0.06205634557665      -2.23879811247935
H         0.34713948984730       0.69053048534393      -2.86628103870912
H         0.62618871124775      -0.78081400831353      -1.95887716476079
C        -1.24573038639047      -0.76508183741517      -3.04595131302603
H        -2.02613464355912      -0.05678823403488      -3.36989673245785
N         0.84094310010333       0.67066414639629       1.05024661229998
C         1.33309858127925      -0.73767702570162       0.76464954824679
C         2.21032942321069      -1.08313680199381       1.96049911524512
H        -1.73492674415282      -1.55669014948330      -2.45477428672626
C        -0.71823171437656       0.63677317187730      -0.99548546677580
H        -1.48349973166969       1.36605496403094      -1.31410823163677
P         4.63391308681642       0.31246322744402      -1.43566038982700
F         4.94949453048021       1.47442023945425      -2.54144885876467
F         2.96916556184098       0.61805725919125      -1.61671359663067
F         4.52322418861177      -0.83429318910237      -2.60003606408346
F         4.23422229290154      -0.83700903228189      -0.27936856277681
F         6.22055473283081       0.01136776650349      -1.20078465839583
F         4.65284339253171       1.46139744820266      -0.21803308822513
