41
C13H21F3N2O2 optimized with DFTB in AMS.
N        -0.55819188000515       1.52694334586589      -0.17008875456803
N        -1.75935790350824      -0.20769078467829      -0.58518265681410
C         1.68164039685691       2.13010279085975       0.63244230716773
C         2.35752788909452       0.84445793128712       0.15014416778054
C         0.50667049101398       2.51964744087921      -0.27025108183325
C         3.52817677597660       0.44517547779659       1.05177701906964
C         4.20054232422130      -0.82705127358987       0.52546027823202
C        -0.76637751827080       0.54731125271383      -1.04547632107129
C        -1.43301998755724       1.39118642953452       0.87578226410175
C        -2.19789005233201       0.29920247878897       0.60702559320539
C        -2.30720658645488      -1.36359556651878      -1.29551478641240
C         5.38903034892335      -1.23140384497791       1.39519215684399
C        -3.23106625150971      -0.89859353174813      -2.41481888822478
H         2.39939220989153       2.95528251830461       0.61314484038415
H         1.32640367715616       2.01377229493386       1.66138180440941
H         2.72276292977017       0.99511083219282      -0.86903917924736
H         1.62376700142018       0.03238443127783       0.12348657478182
H         0.09538923506528       3.48846553737172       0.02525596013952
H         0.82177332791544       2.55914785230113      -1.31611058788335
H         3.16847034314787       0.27912966635175       2.07370889458754
H         4.25859128484511       1.26107108172652       1.08248055115474
H         4.53819807689434      -0.65858607839010      -0.50174879200923
H         3.46885188099741      -1.64147380467719       0.50545322225926
H        -0.25266687593328       0.36926062238015      -1.98530419008558
H        -1.44449831174207       2.07452818310557       1.70679672124027
H        -3.00037068421897      -0.15252116275530       1.16367424784766
H        -1.46563359138725      -1.91935093203300      -1.71752412055367
H        -2.83724506327284      -1.98194787001368      -0.56707537728404
H         5.06615505703656      -1.42959583366910       2.41862488270319
H         6.13680603906795      -0.43712830325838       1.41538774779444
H         5.85248093367276      -2.13391606825842       0.99647909079259
H        -4.00887709581195      -0.24013638012527      -2.02857138465074
H        -3.69404048640203      -1.77088106616968      -2.87339493293480
H        -2.64981292676031      -0.37371101463567      -3.17174387850018
C         0.67569484644027      -1.05544005370528      -4.10894345690392
O        -0.34091893355054      -0.89308077547131      -3.42100792986290
O         0.93091893843154      -1.68161928497003      -5.10705709333066
C         1.94372830833175      -0.22036270188675      -3.45811585531282
F         2.97439015261580       0.02614425937135      -4.26641438628845
F         2.43891550513824      -0.85995834845991      -2.36920055300668
F         1.53050115029221       1.00045275154886      -2.98108272741737
