35
C11H21ClN2 optimized with ForceField in AMS.
N        -1.28279178053450       1.31692212012505      -0.24287360390704
N        -2.67351133445615      -0.38454006653619       0.09223540114612
C         1.10676101756221       1.92736761369828      -0.16624725211827
C         1.56610906089850       0.46776798221196      -0.29914255745149
C        -0.24928619668096       2.15759513567616      -0.84431727408265
C         2.96647852309913       0.26724498273794       0.28676965281625
C         3.42891615290338      -1.18298350356641       0.10405744393135
C        -1.80270364124414       0.18720198294270      -0.76075750912247
C        -1.83813824647126       1.46083507240110       0.97732271658585
C        -2.70417648883957       0.40631362723799       1.18390152894659
C        -3.38973544671179      -1.64206937665972      -0.10140046852322
C         4.82393532754650      -1.39367464919361       0.68222480914077
C        -4.84470058569455      -1.36850703953103      -0.45615333157538
H         1.85511372807316       2.59669060967397      -0.64461043260916
H         1.03528337150379       2.20325282896938       0.90830005116646
H         1.56817360868585       0.17764579496589      -1.37295218421373
H         0.85615805333704      -0.19448239767331       0.24297241423960
H        -0.53897037654514       3.22621903771130      -0.74512946617783
H        -0.16105127990690       1.93493908746342      -1.93060488102788
H         2.94825340635414       0.51597228809525       1.37090163899398
H         3.68299244492218       0.94900158776794      -0.22175236773951
H         3.44779686887951      -1.43752986679421      -0.97838630448353
H         2.72017031679520      -1.87079307510770       0.61506555003924
H        -1.52885691981191      -0.22601276450773      -1.72354930156374
H        -1.61312706846184       2.25871268888841       1.67359288244966
H        -3.29175527046067       0.21714334974129       2.07334699417487
H        -2.92103898044804      -2.22452044718960      -0.92457606094254
H        -3.33542413215408      -2.25244116914564       0.82605061846043
H         4.82987656063787      -1.16168942689242       1.76866152529667
H         5.55807643104167      -0.74206660191480       0.16201337077331
H         5.12649565264000      -2.45297893697563       0.54280291510417
H        -5.34072747716229      -0.80996606160157       0.36580041977747
H        -5.37821071132493      -2.32973736761215      -0.61343847261967
H        -4.89839796688213      -0.77042147033003      -1.39103514623212
Cl        3.56799906031072       1.62555778052369      -3.32060749715254
