52
C14H18F18NP optimized with ADF in AMS.
N        -0.96028177114051      -1.15803367837235       0.06677342866150
C        -2.29057410267817      -1.83267231825727      -0.25086502806782
C        -0.82021967633764      -1.30878253599270       1.58713784103538
C        -3.18109284684073      -1.47849261251795       0.92435944707084
C        -2.23140385785510      -1.59256765403310       2.12961936978749
C         0.16356758532525      -1.85358873323593      -0.68040490965885
C        -1.02828714958114       0.28764526554256      -0.30046737215083
C         1.55548946985587      -1.31884798226975      -0.39248876755277
C         2.58574252190859      -2.26144184705531      -1.02004540115769
H        -2.08853601695919      -2.91084529675485      -0.27407751470551
H        -2.63425541182602      -1.48989084043352      -1.23641606550322
H        -0.36466007382917      -0.38846475373451       1.97471843476042
H        -0.14919087401314      -2.15439718844601       1.76449737106379
H        -4.02178983348837      -2.18357489000019       0.99557798227585
H        -3.60304802571938      -0.46507788372209       0.82698611752148
H        -2.50405928999940      -0.90615549623503       2.94329393109650
H        -2.25338862839768      -2.61818310802125       2.52137163505504
H        -0.08623839346563      -1.77560809887409      -1.75090570047679
H         0.09440557232064      -2.90800439957023      -0.38818173777355
H        -1.17663840388884       0.37090890016556      -1.38499399325057
H        -1.86535062447458       0.75377015864169       0.23215442862516
H        -0.09114906766257       0.77602930769399      -0.01099518924309
H         1.68750024129990      -0.30025431694487      -0.79414140929501
H         1.72530913395571      -1.27449386862308       0.69663147362610
H         3.60628555128408      -1.90246414849542      -0.82721235010265
H         2.48617317814801      -3.27490587040951      -0.60360869905031
H         2.44760588922013      -2.32767701935353      -2.11053360188093
P        -0.35528070338131      -5.88872436512364       0.77062417059806
F         1.14842244848549      -5.27802568883462       0.34628603837002
F         0.08737038120429      -7.46453065089727       0.59150759995820
F        -0.86569315552137      -4.26778814384081       0.99897582776988
C         0.42821565739261      -5.93573270406966       2.58277271637513
C        -0.72371025045141      -5.83037840780113      -1.24103799828594
C        -2.28131989618747      -6.36835002623369       1.17230045607070
C         0.78068900182847      -4.60154877016643       3.31606635946149
C        -1.56551450214205      -6.88649484779379      -2.04343780407789
C        -3.02454099028509      -6.28943767378326       2.54885669014037
F         1.62685875881347      -6.60629254773949       2.51021006971326
F        -0.35572419098121      -6.64144842733050       3.46770223012293
F         0.50206937466934      -5.91637353693909      -1.86352480511596
F        -1.25455878431545      -4.59484037575515      -1.61772787286317
F        -2.53628393672889      -7.64065481179948       0.72460514387326
F        -3.02131042644391      -5.49280152401190       0.38088824565458
F         1.46861987366930      -4.87505115534855       4.45500818309764
F        -0.32595659140516      -3.89767076112601       3.67770007453677
F         1.55818921761619      -3.77964896065079       2.55934869654382
F        -1.35399804867196      -6.66812635954172      -3.37751215035761
F        -1.17141789304506      -8.14539339407141      -1.76431986937082
F        -2.89786707572188      -6.78780664175371      -1.84575275075456
F        -2.78282903506315      -7.35887267799639       3.32988932098011
F        -4.37027004966741      -6.26124011146490       2.32055481003909
F        -2.71431378562727      -5.15404369541788       3.22856764781067
