45
C11H24F2N2O4S2 optimized with ADF in AMS.
N         0.28365023876754      -0.07611220923106       0.16499781977629
C         0.65700267782824      -0.38844077418900      -1.27908554710221
C        -1.21681474592766      -0.27460239902010       0.16866054204911
C         0.94074829005346      -1.03163150666506       1.13250794024633
C        -0.52114477360518       0.10226354853683      -2.12998066749335
C        -1.69450271746429       0.32906941972278      -1.14485022068906
C         0.64467959149670       1.37225078092878       0.46937658907086
C         2.45188485748152      -0.93869473881203       1.16471447646429
C         0.36937564409549       1.80552993315713       1.89802934072569
C         3.04998540169800      -1.99486871404673       2.09324996625490
C         0.63014688415700       3.30580796527629       2.04185292019924
C         4.57386402169732      -1.90466798566063       2.11379859104249
H         1.60954998357891       0.09836312675157      -1.51320744487668
H         0.77879159549377      -1.48045409457162      -1.33017152091073
H        -1.37777718733810      -1.36353248761573       0.19267869712759
H        -1.64606764361419       0.16960720916623       1.07541604551497
H         0.61925504310987      -2.03822096954843       0.81867830384108
H         0.50145158018910      -0.83286354969986       2.12246241134949
H        -0.25169636092894       1.02933928694414      -2.65185245154386
H        -0.76858051552674      -0.65444114386896      -2.88749974807976
H        -2.62668459716248      -0.15370709945402      -1.47098721432950
H        -1.90769369330124       1.40170168581743      -1.02835811684281
H         1.70574384686217       1.48405783055745       0.20981873305242
H         0.09205467332058       1.98539594257114      -0.25447049029463
H         2.86707692478871      -1.06109172304101       0.15260996406379
H         2.77477358944882       0.06029231699856       1.49833307470473
H        -0.67326292884698       1.58991219805258       2.18930204770863
H         1.02177570350529       1.25779430171647       2.59796024981639
H         2.64984543518186      -1.86550342954421       3.11571332478409
H         2.73921158237842      -3.00192588370411       1.75887503608008
H         1.66296841237673       3.55518621440227       1.75899000121939
H        -0.03926206648167       3.88843192376962       1.39069944199492
H         0.46346559814532       3.62286204955769       3.08080635427023
H         5.01076984255597      -2.66628167531599       2.77536707530518
H         4.98560866421313      -2.04654488813726       1.10283416775044
H         4.90141801202967      -0.91382943715634       2.46530822507653
N         3.89194130101021       2.88600897936999      -2.65672362932258
S         2.51890528993423       3.58494464916192      -2.21543152669943
S         4.18432094838802       1.36981395840648      -2.24442534622825
F         2.74390159089429       3.84538596446918      -0.57887253164915
F         3.21074584928134       0.49734271780376      -3.29002751988474
O         2.46145061265348       4.91203033413747      -2.78157655526970
O         1.33402272515936       2.72905589857195      -2.23777761085212
O         3.67026633960533       0.95795224067217      -0.93625568008215
O         5.52970718901760       1.01619291586226      -2.63079394933848
