35
C11H17F3N2O2 optimized with ForceField in AMS.
N        -0.02769145840660      -1.33818060334589       0.34647076001855
N        -2.04325886026085      -0.40869202790265       0.23447504245943
C         1.32666692095013      -1.64581114223781       0.80030969844237
C         2.36773710222878      -0.86565452117001      -0.01291239506027
C         2.18077656001146       0.65233418893595       0.13074206948596
C        -0.93342467023631      -0.56825127192798       0.98060072325997
C        -0.58408854072201      -1.68063115751730      -0.83319055762616
C        -1.83604755449164      -1.10342707860092      -0.90255724070209
C        -3.20117761831417       0.41995567217331       0.55577895574082
C         3.27598796824199       1.41887467985259      -0.60100962776705
C        -3.15842547346403       1.71903667237805      -0.24079027010273
H         1.43411490862194      -1.39291402705283       1.87817761265480
H         1.51065960166209      -2.73646043415023       0.69149670010519
H         2.29199937914043      -1.15393052824771      -1.08411379950292
H         3.38044217232644      -1.15010516871351       0.34741009451351
H         1.19854507886297       0.95418587815396      -0.29218603430605
H         2.20201253080101       0.93454242179418       1.20566720860743
H        -0.76786545384767      -0.09422029469963       1.94099359184079
H        -0.10541250858382      -2.28342932895667      -1.59449527682140
H        -4.13414779923051      -0.13629411872222       0.32157554407635
H        -3.20528028272145       0.66158218696098       1.64097207663633
H        -2.53467436496455      -1.16823305767961      -1.72702038693869
H         3.28149316487620       1.15262937832837      -1.67952860970348
H         4.26479373843932       1.18494183023925      -0.15598101052087
H         3.09349191654885       2.51003389572470      -0.50487224298387
H        -2.23174628197053       2.28190306450662       0.00167093327762
H        -4.03685956236081       2.34636654073557       0.01797720072096
H        -3.17996242529214       1.50395177991385      -1.32999975081739
C         7.27293567386616       1.69024887913527       0.47229550760767
O         7.42529625451579       2.72657996310113       1.09942570640161
O         6.90386427731469       0.68285930247723       1.05416832878295
C         7.54044458330182       1.64631981850810      -1.00279155157943
F         8.54884127677015       0.73665832167033      -1.26098802525870
F         7.92706754166216       2.89262338547840      -1.46425033657591
F         6.39575737362469       1.25529466725711      -1.67143229156530
