48
C12H26F2N2O4S2 optimized with DFTB in AMS.
N        -0.24804724091256       0.46129962893817       0.52413199836980
C        -1.12030189049361      -0.55823390601015      -0.14172052604653
C        -0.92215625882995       0.69986212076098       1.84859333163208
C         1.13088469030915      -0.09193840263741       0.77205264581555
C        -1.55791049573457      -1.49613754734441       0.97537056670201
C        -1.59827475375813      -0.61657084817331       2.23145709940816
C        -0.22039052919755       1.71151439166824      -0.30335115390355
C         1.96951073058175      -0.32417493049344      -0.48004372186083
C         0.60368359000381       2.83675945783019       0.30139431191658
C         3.29961388208605      -0.96820147181621      -0.06330366768514
C         4.19185059584812      -1.29805066225463      -1.26361555619060
C         4.75525808924928      -0.04774197282862      -1.94851552503998
C         5.72533100513382      -0.42138948039354      -3.06868190168814
H        -0.57094918429706      -1.05247674408963      -0.94198335827937
H        -1.97939049102402      -0.03316604105200      -0.56682237580440
H        -1.65686038709991       1.49556793089761       1.71089580588043
H        -0.17579814412269       1.01396150445734       2.57586352867972
H         0.99645220804463      -1.02795584174824       1.31591654858399
H         1.63752436589084       0.60852384692172       1.43637803901029
H        -0.84349332347046      -2.31297377875210       1.09592782886491
H        -2.53349399852593      -1.92794948052631       0.74695371034680
H        -2.62580981958178      -0.42713779222127       2.54722157450965
H        -1.06923442149045      -1.09532025267221       3.05565871140593
H         0.16228116693878       1.43780936174175      -1.28956603161026
H        -1.25958470001287       2.03308694835080      -0.41695263470546
H         1.45236889784247      -0.98393914674349      -1.18416215832377
H         2.16719756589376       0.62345984844121      -0.98704080338915
H         0.51002524793989       3.70604807359341      -0.34907385644491
H         0.24265774088865       3.10254336423890       1.29224600701096
H         1.65584164885392       2.57266947488618       0.37658552169786
H         3.08790787679136      -1.89207756623854       0.48374213661717
H         3.82715167462179      -0.29480155823328       0.61787372879743
H         3.62745914279273      -1.89375415794806      -1.98998092959831
H         5.02495580633873      -1.91278888573089      -0.90807745709040
H         3.93828707794110       0.55002662966298      -2.36700908165798
H         5.27549255333928       0.56851275979700      -1.20780339520398
H         5.22192020877493      -1.02596862613407      -3.82462230277568
H         6.11229805433711       0.47970852151144      -3.54465811050540
H         6.56513610275809      -0.99271753132270      -2.67104016579057
N         2.51145840464702       0.86150325302285       5.00299447980857
S         2.35791583776209      -0.51956959934605       4.24283953499171
S         1.77663551675065       2.10134067661528       4.34497359526676
F         3.30009899331559      -0.34303452695709       2.90922702566698
F         0.18621668511527       1.81150499232064       4.61940524989473
O         3.00312972373892      -1.53755811186677       4.99448706767438
O         1.06648191444537      -0.79773305689625       3.66714414270337
O         1.82305302352657       2.18910175135048       2.90639104708888
O         2.06146355895007       3.26602762212351       5.10625904794971
