42
C10H12F18NP optimized with DFTB in AMS.
N         0.39674031765876      -0.27753922431523       2.08334747212918
C        -0.23007077568903      -1.43118610262367       1.38164186703938
C         1.71105657224382      -0.69373805446602       2.64658354523059
C        -0.49888895014552       0.18295280331227       3.18066468335014
C         0.60672757208787       0.83393116871246       1.12048308249673
H         0.44285800456469      -1.77627843214467       0.59930356376485
H        -0.39720526006893      -2.22798996136412       2.10206797172592
H        -1.17657898160830      -1.11065835509121       0.95047757797666
H         2.14659475760117       0.14578546679015       3.18393757381985
H         1.55315667042886      -1.52543030102564       3.32616317400160
H         2.36250696107824      -0.99978394779726       1.83039376616605
H        -0.00998256202038       0.99296837440557       3.71788406893475
H        -1.43612719609318       0.52868546489902       2.74873848763499
H        -0.68227580323553      -0.64798640902037       3.85665827375356
H         1.06775755964798       1.67032539710191       1.64255067069151
H         1.25976393761158       0.49093350947288       0.32005666055793
H        -0.35496488882538       1.13707030541915       0.71043727960615
P         0.60527555242857      -3.47154342839059       5.43469185178870
F        -0.18126704954811      -2.66332813916193       4.11861317020964
F        -0.84989291856773      -3.98693263031755       6.05302190169578
F         2.08597046792767      -2.94298473512893       4.77497484178971
C         0.57314100108468      -4.97843521385239       4.17235083499706
C         0.31373154013691      -1.67412105465693       6.27002148313912
C         1.60672305217477      -4.22430115816556       6.97982047160935
C         1.56024249050208      -4.94115730122077       2.97514290881655
C         0.47186469625313      -1.22905000323008       7.75250210696066
C         2.15881878257527      -5.66704592248432       7.13980506978162
F        -0.65617114474217      -5.04607384609877       3.62787479492077
F         0.77994597173250      -6.14519828672659       4.80356366740271
F        -0.97222856998420      -1.35709090253085       5.99389447894319
F         1.06524110766138      -0.78927647896266       5.55952882996001
F         0.81048526112975      -4.01692875310670       8.04761958995225
F         2.68183726122223      -3.42330102823076       7.13094289201799
F         1.30812435128563      -5.93350744096157       2.12388788112074
F         2.82340696958771      -5.04117033308395       3.36230573664188
F         1.43153247388337      -3.79117138525099       2.28221622910162
F         0.20954445545718       0.08547369610554       7.80793785331795
F        -0.40167586016195      -1.84194854622097       8.53943430392052
F         1.69260749244672      -1.40640110301534       8.23508809254474
F         1.18342894720515      -6.56002758129738       7.24909024144502
F         2.89766523281061      -5.73472488271557       8.24736718820427
F         2.94013110606213      -5.99670034605954       6.11282598583827
