32
C8H15F6N2P optimized with DFTB in AMS.
N         0.54492929078685      -0.51384871690946       0.13421469560835
N         2.36399029836533       0.29741847173803       0.95189492604559
C        -0.84348897446623      -0.64155637911434      -0.29703322365203
C        -1.04864998035685      -0.04008757093587      -1.69356241495862
C         1.06296709679152       0.52138590371944       0.79475144213395
C         1.54605702633078      -1.39317268832840      -0.17616623065219
C         3.35816211958008       1.19988433135946       1.53597871036196
C         2.69240096693650      -0.88111257312289       0.34032089241641
C        -1.04208012035246       1.48493902594728      -1.67952733726372
C         2.74069673162629       2.48456491063757       2.05923485897918
H        -1.47465113822226      -0.13904666965302       0.44196989985878
H        -1.08400598321451      -1.70803871748088      -0.30328874745287
H        -0.26261665207953      -0.40703730889026      -2.35754351832117
H        -2.01139263240181      -0.40428307697501      -2.06512983871275
H         0.51199237445127       1.37748774867262       1.13912015489999
H         1.36525072098300      -2.29138712501963      -0.73941752855388
H         3.86824309459231       0.65297642388865       2.33554983891506
H         4.07769149119470       1.42452617436049       0.74277657140603
H         3.70796049510933      -1.23205877661125       0.29965335711004
H        -0.08055190399461       1.86110194331169      -1.33578270067497
H        -1.82868093873173       1.86923122398040      -1.02767330344013
H        -1.20944959046349       1.85553568677063      -2.69002706567256
H         2.27387842624148       3.03693681779192       1.24522545715858
H         3.53375761298246       3.09628080318933       2.48666509726577
H         2.00012231546472       2.28117279781654       2.83348009265373
P         2.85294055973791       1.74604369886689      -2.30071502801552
F         2.10035753095143       2.28483397377688      -0.88467129704574
F         1.84849037929101       0.41001412800914      -2.26353380779478
F         1.73545937701195       2.55607339729460      -3.17517303648978
F         3.57279687876535       1.18000744073488      -3.64320462792808
F         3.83298302994377       3.04609220599801      -2.25054385155905
F         3.93476285324543       0.89479020387654      -1.34856403942557
