40
C10H19F2N3O4S2 optimized with ADF in AMS.
N         1.03138245842402      -0.85846205414019      -0.85278489978107
N         1.99086471924934       0.81809958929015      -1.84746022920479
C        -0.78236134163416      -2.00850904689917       0.40736991527651
C        -1.84358802421793      -0.96110415004422       0.08258551777811
C         0.30283817770236      -2.12871493606187      -0.65573648965743
C        -2.89541677000175      -0.82423051950023       1.17993704243575
C        -3.95114131479192       0.22849538026211       0.84439135143689
C         1.38698799881373      -0.36031362551132      -2.04231451577318
C         1.40241955664353       0.03555929575638       0.12946529545844
C        -5.00016218784084       0.37782287489828       1.94237478643766
C         1.99783447099534       1.09212478931814      -0.49613861745247
C         2.38124463085077       1.74360601756218      -2.90696157165170
H        -0.32363663905182      -1.81369615000094       1.39491024967718
H        -1.24398044220185      -3.00874398036716       0.49138479930448
H        -2.33268360423901      -1.21425102716976      -0.87328444768169
H        -1.36999309556715       0.02016433694997      -0.08872096967359
H        -0.14503737268483      -2.36748485882276      -1.63111394433739
H         1.04541234040315      -2.89995757299467      -0.39603631952162
H        -3.39197345271109      -1.80005762512236       1.34561503398743
H        -2.40370950852251      -0.56109862003621       2.13791154514191
H        -3.45220869481716       1.19807677123278       0.66481146474989
H        -4.43368867623296      -0.03751715699640      -0.11065858933908
H         1.16394417913765      -0.79655411966685      -3.00860128014033
H         1.20568516259621      -0.14437114106028       1.17769643009821
H         2.41448175797739       2.00969074675214      -0.09881016837475
H        -4.54019976757780       0.68872492194294       2.89525828076797
H        -5.75706696911745       1.13001166882907       1.67161689967913
H        -5.52298494981007      -0.57652514476609       2.12014733083754
H         3.35832611829636       2.17598291222731      -2.65950479897634
H         2.43528153915964       1.19595630907015      -3.85299281735293
H         1.61156716038091       2.52127533611601      -2.99752005858005
N        -2.58144409011559       1.00074706453153      -4.32132352202726
S        -1.21200603895423       0.63294073099854      -3.64401601438228
S        -3.96200608076574       0.96373774867009      -3.46196882616113
F        -1.28384383114506      -1.04369253390641      -3.38205733068469
F        -3.75252802518857       2.20248883952236      -2.38802389260048
O        -0.12716603331373       0.73350108578861      -4.61352736408561
O        -0.96420678760506       1.14087889641220      -2.29539859793204
O        -4.10882045785402      -0.20894430246587      -2.61880969484221
O        -5.02590647056813       1.40436651700183      -4.33156448275300
