45
C11H20F6N2O4S2 optimized with ADF in AMS.
N         0.38587536712333      -0.70073138913073      -0.43989907975078
C        -0.39399764040882       0.59157563809492      -0.57074083268276
C        -0.54620055349372      -1.87799701506829      -0.69754267424448
C        -1.63619942003787       0.64312960149231       0.30451544150435
C        -1.79068835187846      -1.85217802806913       0.17149849928660
C         0.99830595404661      -0.85034616203018       0.94691427121194
C         1.46663829983540      -0.68295247185195      -1.51006015587971
C        -2.55882296021706      -0.54275472233516       0.02259588807968
C         2.09493987812715       0.13685646852296       1.27881966277750
C         2.37844874785976      -1.89108602850314      -1.53153727715836
H        -0.67857584597160       0.66030191862934      -1.63361451233758
H         0.30417766261046       1.41143477584699      -0.35162789509639
H         0.02916863140325      -2.79551010967850      -0.52035732946199
H        -0.81558573310590      -1.81067615746269      -1.76502254565934
H        -2.14245946609405       1.60037646891490       0.09299231651963
H        -1.35791112364630       0.67157854211256       1.37140908860427
H        -1.52461833538155      -2.03547265136183       1.22380459465212
H        -2.39713470327740      -2.72166547120706      -0.12702611022001
H         0.16740463156921      -0.76681245846677       1.65555904762768
H         1.36431599286573      -1.88466029425534       0.99483606858584
H         0.92274044104839      -0.57616224436055      -2.46187578497284
H         2.03493302469555       0.24458720630090      -1.34420284373771
H        -3.42696134532385      -0.52303388259542       0.70052094138137
H        -2.95407315843824      -0.45770279904103      -1.00719632211361
H         2.40894122406195      -0.07153082158371       2.31306020740269
H         2.98825842911186       0.00000242793869       0.65475606664923
H         1.76940069335149       1.18712525572071       1.23622759500297
H         3.10986329484916      -1.73587842003277      -2.34021374773783
H         2.93420125327705      -2.03063348531226      -0.59439864549246
H         1.83872351959841      -2.82324174518095      -1.74350263795064
N         1.55480108914687      -4.08752764481591       1.05587066067879
S         0.32378480516379      -5.04846839122809       1.47338232807742
S         2.95377102488063      -4.07174402521764       1.86835471212060
C        -0.42723995743187      -4.28269114708188       3.06087622552055
C         3.97479135298633      -5.52934505544890       1.20467929155220
O        -0.71536913427104      -4.80183526175693       0.47260680043399
O         0.67139305690960      -6.40556065072888       1.86227012940658
O         2.84981519180594      -4.31492226410161       3.30105248317663
O         3.67875744783240      -2.89784976501706       1.37279460838359
F        -1.77675140103812      -4.43474596753690       3.02181857758735
F        -0.17157955999207      -2.93976674579032       3.13930041823242
F         0.03833436324458      -4.86620661616564       4.17397824974536
F         5.28378173001701      -5.28317192726400       1.45988581622551
F         3.81505275925080      -5.65705986931877      -0.13642023553051
F         3.63166987213520      -6.68576359897429       1.79746656260011
