35
C11H21ClN2 optimized with ForceField in AMS.
N        -1.11983919399914      -1.74672884425847       0.22511659589364
N         1.10063955893797      -1.68817440990686       0.31097050931932
C        -2.51795747933888      -1.48594490762081       0.56108396669873
C         2.45342992343742      -1.36139870193417       0.75822784360488
C        -3.02584761887341      -0.21735067877458      -0.13863644180399
C         3.02918847335928      -0.17939355154306      -0.03493679509025
C        -0.04420236709705      -1.44774885411026       0.97893664692953
C        -0.64098220195166      -2.20078754725805      -0.95076384891832
C         0.73819318991540      -2.16791843978534      -0.89631104233420
C        -2.26723674748914       1.03537488409856       0.32461491642694
C         2.17071689997981       1.08523125602233       0.11479771691382
C        -2.84745982508790       2.30094848133911      -0.29911337944107
C         2.80794971598794       2.27700917818761      -0.59296480583014
H        -3.13741056816907      -2.35482913973073       0.25053578357203
H        -2.63020373698056      -1.37292827242160       1.66161439115985
H         2.44560483781360      -1.10663307476083       1.84077242573381
H         3.10636467769953      -2.25087862917241       0.62818712424866
H        -4.10608286361574      -0.09829836381067       0.09515659208090
H        -2.92305303298813      -0.33313056344233      -1.23967474363000
H         3.10582977152689      -0.45493173712561      -1.10924208872375
H         4.05468347444993       0.02729342571210       0.34072130184397
H        -0.09459394127297      -1.00117391922995       1.96529677426870
H        -1.24782990907139      -2.49942586218279      -1.79602619517568
H         1.42292683596853      -2.43602139371113      -1.69081785375469
H        -2.32010972993889       1.12069229022411       1.43160962250069
H        -1.20070379937935       0.95878027630754       0.02911413007888
H         1.16879984130001       0.91153048703769      -0.33010838658507
H         2.04182977791531       1.32891859200882       1.19165273508777
H        -3.90435858317194       2.43572311403786       0.01391771259958
H        -2.79522745110712       2.24430830056449      -1.40709468908271
H        -2.26205289323504       3.18279104400525       0.03789508942848
H         2.92626702140938       2.06303834860319      -1.67642230469731
H         3.80152311460829       2.50301862891075      -0.15151655862552
H         2.15679796016045       3.16941197568133      -0.47702924140096
Cl        6.33424592669763      -2.13636428556106       0.48725045410348
