40
C12H25NO2 optimized with DFTB in AMS.
N        -0.11925014106466       0.71070287029354      -0.24350303697600
C        -0.92954582162470       0.71018101876531      -1.52033699694110
C        -0.90857143743278       1.55352971004938       0.72419921440555
C        -2.30536326183504       1.28552568621998      -1.18502293975529
C        -2.36070467084557       1.34167577536230       0.33825300709037
C         1.21641456074399       1.34291150276491      -0.50897966968852
C         0.00877268615663      -0.67433207218138       0.31169174526612
C         2.09303999215587       1.48768147232576       0.73241321528733
C         0.88293838649299      -1.61697038785955      -0.51636182384017
C         3.15867098079667       2.55064366216593       0.46472648837375
C         0.74831014575232      -3.04251451399935       0.01828126078265
H        -0.41931758352211       1.35246505699743      -2.23881363982315
H        -0.98522790679030      -0.30705309022866      -1.90847467725119
H        -0.68294248681639       1.25002634190489       1.74623938634237
H        -0.60133984288401       2.59826083090386       0.56616105720911
H        -2.36733491357870       2.29686482766567      -1.59490692939161
H        -3.10556575173296       0.67507787824398      -1.60632693144958
H        -2.75146210363747       0.40874384751055       0.75683890428900
H        -2.97764517170883       2.16781771032199       0.69342683278525
H         1.71723018659351       0.75292111642681      -1.27929955345546
H         0.98966318248948       2.33251253135923      -0.91328436827008
H         0.42521331642299      -0.58523116427049       1.31824281966690
H        -1.00415962070503      -1.07803409637513       0.39252267527503
H         1.48985009552834       1.81220756468477       1.58303525524404
H         2.56406147694703       0.53314866181754       0.99016035798827
H         1.92999046135335      -1.31064784120352      -0.45357184087725
H         0.58713760188807      -1.59733423636890      -1.56826376445207
H         3.75806020317740       2.28584187717616      -0.40716254303207
H         2.67235925885809       3.51018530799935       0.28507857290794
H         3.81622808955531       2.64285107426045       1.32890019679025
H         1.05119036720729      -3.08902926324828       1.06482976423030
H        -0.28312194020044      -3.38742842814932      -0.06219869475990
H         1.38526053848318      -3.71247819077518      -0.55820198740977
C        -0.33548830559157       5.89779841605327      -1.46253638431799
C        -0.13364902094761       4.42078571303218      -1.05873289293484
O        -0.48797708015068       3.55463654448690      -1.88964555286808
O         0.37730824407471       4.20180676933886       0.06288836239976
H         0.52143982613462       6.20650178781187      -2.06122653724810
H        -1.23767031773711       6.00044294789082      -2.06272845510981
H        -0.39483748190588       6.52637412842619      -0.57624449498197
