62
C18H23F18N2P optimized with ForceField in AMS.
N         0.24713953061484       2.21841848969310      -0.20121257448451
N        -1.84104873421572       1.45481756072365      -0.17876613984150
C         1.61692022017165       2.47626981739322      -0.64195711709225
C         2.60758074682344       1.53120509384918       0.05168677153327
C        -3.06686633555593       0.77492735400920      -0.59336134584815
C         2.29935811671362       0.05670304273173      -0.24870583126896
C        -3.19178115884762      -0.59633743006557       0.08418690062024
C        -0.73667853748542       1.64997832226025      -0.92491320044277
C        -0.25541644164212       2.40089413957355       1.03683161053541
C        -1.55108597244203       1.92670743808404       1.05080016826948
C         3.34897558327782      -0.86560456168041       0.37860692490038
C        -2.06027815625424      -1.54619395720154      -0.33499873829288
C         3.01174469769124      -2.33282553889074       0.12813169896081
C        -2.21643426835035      -2.91490299782313       0.31983868819533
H         1.88426290413112       3.52939976074542      -0.40893672201549
H         1.69456724775506       2.34542120324943      -1.74395626855652
H         3.63241175605542       1.77430312673065      -0.30456344605234
H         2.57708527367718       1.70409869850274       1.14969200495412
H        -3.94233008603147       1.40333169852766      -0.32215734492486
H        -3.07729495527584       0.64406598793977      -1.69807113771604
H         2.28047810241490      -0.10184361369947      -1.34960608337248
H         1.30008290199686      -0.20289777090688       0.16326014888512
H        -4.16940096766671      -1.04197792271039      -0.20206199489856
H        -3.18541010612936      -0.46636913890351       1.18848019366723
H        -0.63276354612079       1.33512208375572      -1.95606875840323
H         0.28918173830376       2.81619702558062       1.87472284545422
H        -2.21969154832892       1.89988231476712       1.90134723256094
H         3.39575865845275      -0.69057544165648       1.47574035563636
H         4.34658137235154      -0.64338185313990      -0.05768745141810
H        -2.06527909042226      -1.67158269600010      -1.43969586524868
H        -1.07822106296053      -1.12298692220471      -0.03387343599425
H         2.98392374684132      -2.54179272849616      -0.96253331174545
H         2.02587598291882      -2.58409746409276       0.57496779053473
H         3.78590670458558      -2.97751096890860       0.59447350544427
H        -2.18715825569031      -2.81794783537956       1.42614430801881
H        -1.38369737809333      -3.57633992723806      -0.00012568469265
H        -3.17799320802172      -3.38094915073167       0.01651149983544
P         8.84669613391152      -1.85747309979151      -2.24467812467178
F         8.75481922293960      -1.04279369335735      -0.72842615579209
F        10.19900145748546      -2.91672089881947      -2.11094786682374
F         7.45759563712264      -0.84490666864682      -2.16621183295491
C         8.17641028861028      -3.32331340929577      -1.18090032870558
C        10.28141565734895      -0.55819867727043      -2.34436004622653
C         8.34130547536663      -2.03573227226528      -4.08741388334941
C         6.72661678103595      -3.18174836895805      -0.66729717210610
C        11.25914400843095      -0.65186389323085      -3.54745072533662
C         6.98589861690586      -2.69217316059578      -4.40597038957909
F         8.97438268265932      -3.47124646235012      -0.05206916462340
F         8.27301488730369      -4.50566919043487      -1.89574222384893
F        11.06805838668537      -0.64511949230458      -1.19962686332451
F         9.72093799017781       0.70934345005655      -2.37082565131390
F         9.32079131163623      -2.76985800168308      -4.73247459399979
F         8.29496257634434      -0.77552283513167      -4.65681113848158
F         6.40667543756088      -4.29992960128697       0.08221658351556
F         5.81956395615000      -3.09368684768297      -1.69823920119402
F         6.59265382802601      -2.07162626097088       0.14530931215205
F        12.33639264829061       0.18324877795675      -3.30602513158603
F        11.75265543981521      -1.92983172886901      -3.72705732922063
F        10.67350950888260      -0.22508846275655      -4.72116310338300
F         6.90295633734571      -3.97163216309847      -3.90040410109716
F         6.85116163747358      -2.78030451132617      -5.78038758417328
F         5.93841554664856      -1.92235478487402      -3.93512774177198
