37
C13H21NO2 optimized with DFTB in AMS.
N         2.01876582722277       0.02158792122180      -1.12580284225267
C        -1.76767220863467      -0.12776218877562      -0.73627722431417
C        -0.30109421704924       0.00842201769352      -0.31949423878316
C        -2.70162210369842      -0.01704081628384       0.47268187448010
C         0.62432896989499      -0.09683146508437      -1.53840850402199
C        -4.16962592819438      -0.14924776853522       0.05516338652194
C        -5.10422588553451      -0.03880059983255       1.25883742559166
C         2.76975127654688      -1.09075756679413      -0.89200952982818
C         2.57745930295278       1.33984605296469      -1.02370561848690
C         3.99112627504560      -1.02213744894839      -0.31249342700753
C         3.78445632216390       1.37355792439680      -0.14697764391252
C         4.47348433578403       0.25382088996305       0.12595613397573
H        -1.91870392869446      -1.09535803693073      -1.22778940606917
H        -2.01305200937611       0.65662841625815      -1.46018182192431
H        -0.14612028420562       0.97494463936046       0.16987097030814
H        -0.04042441766888      -0.77643769776576       0.39789396242962
H        -2.45543697635799      -0.80167536661950       1.19667384726588
H        -2.54746544556236       0.94983090512583       0.96393666332293
H         0.39754599047608       0.69506300564322      -2.25673364556603
H         0.48718747314366      -1.06476153379469      -2.03083542704793
H        -4.41424434546567       0.63587153581138      -0.66828067088079
H        -4.32280407726341      -1.11600523817728      -0.43666870519068
H        -4.98142409679901       0.92718436216891       1.75073932152437
H        -6.14171707210733      -0.13548659817388       0.93779689585677
H        -4.88988495583293      -0.82611550653421       1.98307223468635
H         2.30582866050115      -2.03404718811235      -1.16110446531220
H         1.80179838961077       2.05404752482391      -0.71319723130238
H         4.56634232913810      -1.91848389978324      -0.12824092441289
H         4.09893453222200       2.35206186370543       0.19272732809827
H         5.37659069009543       0.29157444125875       0.72525186888305
C         2.79949291584844       2.93735905366986      -4.41224829601966
C         2.18402795114920       2.54826444638341      -3.08735743163638
O         3.00321892277234       1.77963679906008      -2.38418889123924
O         1.08550995554762       2.89106661982700      -2.72899954792242
H         3.83275437720841       3.24435147192367      -4.26584700207143
H         2.78657753382509       2.06731843804900      -5.06765796407742
H         2.22270174909579       3.74057667033683      -4.86366607416472
