45
C11H24F2N2O4S2 optimized with ADF in AMS.
N        -1.00252930952320      -0.04666620635444      -0.56820397696866
C        -1.71507840465940       0.17281403468607      -1.90015732744925
C        -1.37764256786560      -1.41896830687707      -0.03154742317658
C         0.48490818375209      -0.01247491497138      -0.84705712988187
C        -1.40471928143514       1.02623875350181       0.44624093530547
C        -3.21214062147505      -0.07245555225000      -1.84088559567346
C        -2.87728892473873      -1.63039596957965       0.07696750858310
C        -3.55339412323484      -1.44891232240251      -1.27924475225935
C         1.38839391988127      -0.22642996177943       0.35571739335914
C        -0.80338066979123       2.39265801214120       0.20100682064348
C         2.85256249017871      -0.00669866303508      -0.03703471187241
C         3.80225548733818      -0.24585569857536       1.13326874994308
H        -1.22785466534580      -0.52198722959269      -2.60430159841780
H        -1.48871132717873       1.20347577390158      -2.20788289795134
H        -0.87790495914317      -1.52248758820527       0.94109943658213
H        -0.93295871041589      -2.14220386434386      -0.73684855905449
H         0.68490700137915       0.96234500061579      -1.31608935289405
H         0.66908254917830      -0.79016343864320      -1.60465072480586
H        -2.49843816270467       1.08894736649909       0.42516293458759
H        -1.11386801937148       0.62951580185544       1.42997981169104
H        -3.59181940678192       0.04546823024973      -2.86979420056442
H        -3.69493804809301       0.72092063810931      -1.25405292869841
H        -3.32150285175835      -0.94080604183327       0.81312379801925
H        -3.02972113361039      -2.65184122085970       0.46488470898863
H        -4.64485586316496      -1.53946919727812      -1.16970940481011
H        -3.21461091329844      -2.24156066787792      -1.97403766428707
H         1.27437374451741      -1.24986326605858       0.74921028714495
H         1.12793776188782       0.46855333851346       1.17039070920261
H        -1.28662644873689       3.08087754449409       0.91113610402718
H         0.28275913381330       2.42746417664529       0.37015870085346
H        -1.04473286463214       2.78458132957479      -0.79570863659597
H         2.97629803020445       1.02400694692142      -0.41427561877060
H         3.11373635689066      -0.68019733257381      -0.87341644920319
H         3.71634615852465      -1.27819478157709       1.50698096277636
H         3.57707696414040       0.43553007865120       1.96851007626744
H         4.84838490251297      -0.08053909140537       0.83648682533413
N        -5.97594469756977       2.64412477548476       0.11939522682580
S        -4.76019175103599       3.61512704989087      -0.21847219655399
S        -5.76695628053831       1.23966238801189       0.85407262903666
F        -4.15353346654366       4.05832684108441       1.26623587434904
F        -6.73029348049424       1.46147146186713       2.16095070473296
O        -3.60720265625015       2.96455130983925      -0.84482121785172
O        -5.27637828392866       4.83657766352819      -0.79173976523776
O        -4.44159924513140       1.00150340316940       1.42870001678152
O        -6.41144314084819       0.16627842163760       0.11844863554331
