38
C12H19F3N2O2 optimized with ADF in AMS.
N         2.03255748686523      -0.51187383647942       0.24854232037969
N         3.35962329132629       1.20373935647916       0.37756697704879
C        -0.11428808075970      -1.74055760704735       0.17470401989383
C        -0.93683315033902      -0.53742800186482      -0.27691299456766
C         1.33046246995804      -1.68144435631279      -0.29569526490249
C        -2.38673792059318      -0.58767537417715       0.19402595611478
C        -3.20129126330213       0.62091509201540      -0.26235671060209
C         2.68149636402368       0.41306029756149      -0.46790583002852
C         2.32887887559765      -0.33101029588946       1.58050281170187
C        -4.65066769802302       0.56969392656339       0.21183511301304
C         3.16605303460060       0.74210347171760       1.66127440281259
C         4.42155153379245       2.12719082462731      -0.00804907877473
H        -0.14732835947242      -1.83031085394330       1.27541662268449
H        -0.55141608445136      -2.67367320362563      -0.22178348033933
H        -0.91299828754999      -0.47645970943875      -1.38188283338794
H        -0.46693823212353       0.39059993042006       0.09841639130693
H         1.38825598910075      -1.60073557092793      -1.39054304499070
H         1.94163121996644      -2.54662585953039       0.01094927966005
H        -2.86304927129983      -1.51367093843536      -0.17939812699415
H        -2.41102984304931      -0.64972124666694       1.29854442134902
H        -2.71845702768540       1.54285272214353       0.11093958176936
H        -3.17142033117705       0.67993011939219      -1.36605985958798
H         2.70311621766006       0.47393320735505      -1.54787229778891
H         1.98587790489362      -1.01664160699390       2.34324837083482
H         3.69398646674533       1.16668013528927       2.50473288606663
H        -4.70183372545975       0.53947633429554       1.31237478733525
H        -5.21942849162222       1.44785215129664      -0.12888339279656
H        -5.15692269129336      -0.33110831768767      -0.17095447356870
H         5.36966503209215       1.58326013200218       0.13359211694021
H         4.29157163422996       2.40108326877921      -1.06075535190616
H         4.36597201188645       3.02487010728581       0.61969944687502
C         4.92495024362585      -1.51846327525688       0.32096871800394
O         5.55899887058662      -0.60203156190856       0.89549583364907
O         4.15839025638327      -2.40825363472623       0.75683605398475
C         5.13038341814888      -1.56387694760419      -1.24745773195140
F         6.10379276672829      -2.44994294835943      -1.60252610906026
F         5.48594769588795      -0.34455964500135      -1.79246306009791
F         3.98920317290169      -1.94073135224631      -1.93877904007867
