20
C6H8BF4N optimized with DFTB in AMS.
N         0.86478289801431      -0.06473044309252       0.02309791094139
C         1.71964887094895       0.54046122765151      -0.81717442981333
C         0.78344280813911      -1.40944980602667       0.08778120689064
C         0.08916873730500       0.73468500970715       0.97018030015859
C         2.42741772421071      -0.21770436570405      -1.74859171560180
C         1.50502139277522      -2.19583083750709      -0.77338152712420
C         2.33445029650012      -1.59106927192836      -1.72299240363580
H         1.72205595210698       1.62262779342557      -0.82313854814259
H         0.11505681100479      -1.82174171782539       0.83372687458698
H        -0.87386889028814       0.25554076259201       1.14095479215413
H         0.65264391151274       0.80074859732523       1.90428247869539
H        -0.04535361361952       1.73583276797603       0.56861027564983
H         3.07947789540770       0.29272517311507      -2.44485629048206
H         1.42327423184560      -3.27309381862466      -0.71222137263022
H         2.89155328652881      -2.19961697644804      -2.42462215193038
B         3.06360614734628       1.78342758361467       1.59107241851505
F         3.36572232299086       0.84692784676180       0.52041115253764
F         2.51192309145808       1.04154028368647       2.63585361781513
F         2.07063647231865       2.63858645631649       1.06326981414585
F         4.19350072699377       2.45153052328480       1.94417362426977
