41
C13H24N2O2 optimized with DFTB in AMS.
N        -1.27511650019335      -1.08693897892986       0.26560080382678
N         0.83486070311268      -1.03663888310772       0.59610396792531
C        -2.68856832086563      -0.73185318348095       0.31046648849891
C         2.13121924417421      -0.57659870310717       1.07292148981106
C        -3.14177253254346      -0.16874692906652      -1.03960740339815
C         2.71262666030567       0.47669639224411       0.12366294315999
C        -0.31677045002809      -0.44852803771280       0.93851184773638
C        -0.73050529881428      -2.07722209749221      -0.51447183808247
C         0.61098763108312      -2.04243293193434      -0.30848416738520
C        -2.40008304757391       1.11234942135188      -1.44308348229891
C         1.83555236271505       1.73061940992792       0.04747317045112
C        -2.85132637130188       2.33382634573505      -0.64453351957898
C         2.50067276186827       2.82337666860467      -0.78569727399785
H        -3.26235756160614      -1.63155006680868       0.55251452118675
H        -2.80777655671668       0.00233821157855       1.11270199405948
H         1.98185529543816      -0.14785983014614       2.06795723080133
H         2.80017305921102      -1.43843662688085       1.14421725985218
H        -4.21562459823081       0.03040255940892      -0.97563381887044
H        -2.98885674159265      -0.93057089740534      -1.81143718842744
H         2.83177817671441       0.04038458140902      -0.87357998062364
H         3.70633879135398       0.74302099996853       0.49685553535634
H        -0.32143060936844       0.45903740087954       1.73512630218197
H        -1.33061145223713      -2.71958643784137      -1.13520567019489
H         1.40544426258986      -2.64462867887721      -0.71393482747846
H        -1.32243758615062       0.96416853275725      -1.31348665122581
H        -2.58186280463422       1.29106121074110      -2.50830981675581
H         0.87122855574369       1.47170109562084      -0.40143714721198
H         1.64074495698621       2.10226514587202       1.05816947151032
H        -2.67533804326254       2.19002640036750       0.42054139255462
H        -3.91516247528270       2.51884891108451      -0.80012878860795
H        -2.29444171032941       3.21208123312289      -0.97259354095290
H         2.68629844364459       2.47304727736180      -1.80247034722437
H         3.45204897687187       3.11946173620307      -0.34130401265070
H         1.85226619906880       3.69819993656318      -0.83247378009813
C        -1.26661738723059       3.02430035545172       4.02323908913089
C        -1.23387976899688       1.91003693324345       2.96951491720168
O        -2.29589846963464       1.49588196544357       2.49828061954372
O        -0.07614586009887       1.48452911040974       2.66007913545008
H        -2.27032319892195       3.43551787826825       4.10489498050953
H        -0.96437219391382       2.60596775773525       4.98268033449837
H        -0.56094994945295       3.80670788483686       3.74924264021729
