26
C8H15ClN2 optimized with ADF in AMS.
N        -0.67347927978408      -0.98699977265843       0.39949387262946
N         1.46263129620518      -0.56627457241889       0.28799041621455
C        -2.11750638732703      -0.84427237864006       0.61528574120033
C        -2.82663738665785       0.02430605275010      -0.43466071948980
C         0.25494186575327      -0.01747479894669       0.54430830757885
C        -0.05473422091626      -2.12210104104093      -0.10034392332442
C         2.72041544657532       0.18805358031656       0.24605101256478
C         1.27833207596508      -1.85789849861292      -0.16889700195227
C        -3.01652700811856       1.47442081738066       0.00215966318051
C         3.24427264083601       0.34667219554360      -1.17399714830542
H        -2.26456684198492      -0.44086644189494       1.63087588505611
H        -2.51179743650400      -1.87098393038087       0.61589496376453
H        -2.23339511103191      -0.00012605659157      -1.36429769259070
H        -3.80735420082599      -0.43599563135354      -0.64408876291264
H         0.09026318941808       0.93824733861265       1.01840208185209
H        -0.61567036574607      -3.01337999957631      -0.34946055581034
H         2.49584685532109       1.17454771355444       0.67491935923597
H         3.43954929911313      -0.32574875354281       0.90466124201547
H         2.10378320401459      -2.47347551503831      -0.50144674904711
H        -2.04210938510048       1.97232737567456       0.11843425755107
H        -3.59378777737879       1.53561954102045       0.93957089238367
H        -3.55988565967449       2.03793694311698      -0.77109771040330
H         3.50648373026455      -0.62429644888342      -1.61985451300945
H         4.15012968988831       0.97082840681426      -1.15761491549050
H         2.46735413388395       0.84130800376378      -1.77938708864689
Cl        0.09264725131187       1.69458762093163      -1.45104512354455
