42
C10H22F2N2O4S2 optimized with ADF in AMS.
N        -0.72201468549030      -0.19052388307989      -0.43551070853270
C        -1.75498011721452      -0.30820872931828      -1.54628453850515
C        -0.94525953683025       1.22666354319116       0.04447305327719
C         0.67645385416579      -0.38105546297707      -0.98020088246749
C        -2.99351957706043       0.40060819104173      -1.00439256511393
C        -2.46265828755562       1.42067073237157       0.03766931765843
C        -1.03018882884664      -1.15769714775245       0.69651310842782
C         1.79212232297943      -0.21232759926918       0.03291685248917
C        -0.79135760797889      -2.61479274014201       0.36388891786352
C         3.14127840963436      -0.34992487819610      -0.68094056217349
C         4.31619662903775      -0.21541691300434       0.28088857157629
H        -1.88824449929385      -1.36004348321541      -1.82219150262472
H        -1.32336802231327       0.20889220392542      -2.41449474668583
H        -0.46829694413301       1.36337124984652       1.02259920927247
H        -0.45275112347873       1.87382718636286      -0.69594793514298
H         0.70524741605952      -1.37919329963651      -1.43209399309378
H         0.77468365733440       0.34803327752307      -1.79891021846971
H        -3.53108957331116       0.88876992175704      -1.82950879504719
H        -3.69336641130087      -0.31097797047101      -0.54226305026607
H        -2.89018251658116       1.23359054463304       1.03349919670997
H        -2.70684436085310       2.45839660778589      -0.22963744164743
H        -0.41020719007041      -0.83293267052866       1.54477224426831
H        -2.08203843923061      -0.98274825885494       0.96181329617311
H         1.74175104716071       0.77616940220401       0.52412739591105
H         1.72742108106358      -0.97889671930702       0.82523057137699
H        -1.14265001719962      -3.21693780286782       1.21593012462398
H         0.27176938329404      -2.84107459080038       0.20884586926032
H        -1.33678851762431      -2.94748622138134      -0.53020329671534
H         3.17812583507170      -1.32283210734511      -1.20054965206675
H         3.20915118264594       0.41482663426523      -1.47422319935374
H         4.28416242467146      -0.99639538067987       1.05810677066666
H         4.30703183726143       0.76448334071478       0.78614854697309
H         5.27432287743736      -0.31035313632461      -0.25059234236657
N        -0.25223495071315      -1.69226200678823      -3.77197998632440
S         0.95902533509118      -0.88793692699391      -4.45973694047757
S        -0.22701950155665      -3.27221199626145      -3.52557453300790
F         0.79342058479151      -1.22950491083045      -6.05495292624138
F         0.97339920344079      -3.44633524675916      -2.35645702132969
O         0.62026586303585       0.52366227490383      -4.34211621406934
O         2.29294985985680      -1.34270431826772      -4.11436158885483
O         0.22340522172040      -4.11457378440956      -4.60988945267171
O        -1.44154626051743      -3.58407017166367      -2.78189691257867
