43
C11H24F6NP optimized with ForceField in AMS.
N        -1.38407464068367       0.17606690993671      -0.06796748290022
C        -1.65432186026118      -1.01422851224788      -0.93279974678336
C        -2.48960502422672       0.18200889831064       0.93887369087266
C        -0.06992305099400       0.01665121370673       0.63660619217737
C        -3.02152629235991      -1.56546768067996      -0.57394297110483
C        -3.21223180371182      -1.14809539269828       0.85640396718455
C        -1.43635175063805       1.42133210725323      -0.90051843722893
C         1.16415593097812       0.03267561059161      -0.29810417346867
C        -1.15081886157761       2.72003441622350      -0.12394793946851
C         2.43424013187147      -0.35909099705994       0.46689759488135
C         3.66313780673420      -0.32316999776273      -0.44881025393321
C         4.92935658410857      -0.70044057127847       0.31336470288928
H        -1.61581559135482      -0.78478292047644      -2.02198964335357
H        -0.92103973253243      -1.83582783696601      -0.76166558480494
H        -2.13644668993116       0.35683805324811       1.98064837092520
H        -3.24580489000728       0.97311834059060       0.72815435055941
H         0.06361455053780       0.81608228082413       1.39905322762701
H        -0.07104863945645      -0.94053515256609       1.20848662015917
H        -3.79919139749121      -1.09171132040049      -1.21297554932607
H        -3.06733893500830      -2.67097275769295      -0.68507915066727
H        -2.72720339452663      -1.88463340563162       1.53433510368071
H        -4.28993254739432      -1.05361492903783       1.11365105032944
H        -2.44121616774525       1.51935169370573      -1.37190154528215
H        -0.71912811033358       1.36079369425099      -1.74815652747150
H         1.31029399778911       1.05155944784124      -0.71346127124961
H         1.02475062704380      -0.66918681985793      -1.14669566947988
H        -1.77883600106420       2.80089051586807       0.78587293932124
H        -0.08224342387108       2.78780096261868       0.16407574423817
H        -1.37530064445000       3.59028242364785      -0.77626802683020
H         2.31454394680977      -1.38501544964831       0.87996862569339
H         2.58446837011298       0.34771815265958       1.31309465172278
H         3.52471380143846      -1.03584805949392      -1.29120776961032
H         3.78886440985056       0.69872032923701      -0.86912823948707
H         5.80453116403490      -0.64415696086710      -0.36761326258261
H         5.09147416123543       0.00009099455644       1.15981683537723
H         4.84881867746030      -1.73695983557871       0.70538645187067
P         8.86488496828878       1.35752370291332       0.97692421211474
F         7.70451176040506       2.06669763821224      -0.07362020297306
F        10.18528731188207       2.12748950487362       0.19167354133831
F         8.73339707269978       2.73275293322303       1.99872419291880
F        10.01678178016674       0.56773083777631       1.97786293683205
F         7.65365952508455       0.59147964100919       1.92395076998820
F         8.89844287978717       0.05147823596609      -0.13924338169577
