31
C11H17NO2 optimized with DFTB in AMS.
N         0.13271999669850       0.71001387607763       0.39106963946260
C        -1.95137905239216      -0.37562199131139      -0.32767223664001
C        -1.28218083104146       0.54589686981805       0.70098083528725
C        -3.43353018671257      -0.57738765438194      -0.00122509388883
C        -4.10852759991591      -1.49809180469116      -1.01658295754807
C         0.49051146842242       1.83192412793774      -0.43330880244751
C         1.06870151907752      -0.08154805657644       0.99118557195998
C         1.92162884529284       1.79179313942082      -0.86135892529235
C         2.38029469959397      -0.01094309292961       0.67337505154698
C         2.80177271389526       0.94206045726463      -0.31004300796350
H        -1.43540273977873      -1.34095173877723      -0.33087351184475
H        -1.84872589914223       0.06179023852224      -1.32598834214446
H        -1.37701113986382       0.11883369500162       1.70421717062839
H        -1.76000453585288       1.53072293640732       0.69669762278222
H        -3.52988232746162      -1.00836601624079       1.00126934522770
H        -3.94041685142178       0.39370760168002       0.00277097432380
H        -5.16090131494154      -1.62685264980154      -0.76278194203476
H        -4.04190945987029      -1.07467115005125      -2.01969449641304
H        -3.62933836508803      -2.47800784188834      -1.02120466227626
H        -0.19444412649532       1.89867601723518      -1.29331656616301
H         0.67946433497172      -0.80075495733479       1.70389612767687
H         2.20554868954149       2.52216872507395      -1.60888396370327
H         3.09961808757023      -0.66415853482242       1.14637111523072
H         3.84118598162245       0.94830953087150      -0.61937704956160
C         0.32021998156542       4.73707881492309       1.93700165956253
C         0.75901068732716       3.37115969702895       1.44902837694028
O         0.18352130743902       3.09623160019718       0.27734633951900
O         1.51139725125415       2.65567595359838       2.04819612590708
H         0.79605354002761       4.95590546492480       2.88943836997970
H         0.59915858653469       5.48795265839150       1.19986816577571
H        -0.76255556015613       4.74917462153231       2.04837548471064
