27
C7H11F3N2O3S optimized with DFTB in AMS.
N         0.10580051555765       0.15177711508983      -0.77250036803944
N         2.05339633537356      -0.00704475533718       0.12274496909333
C        -1.06015088967865      -0.13818383934655      -1.60061542844573
C         1.15856699266838      -0.64595756201030      -0.62789628666278
C         0.34015424381351       1.33259860699654      -0.12341707900987
C         1.57367204874100       1.23459851800633       0.43802987580910
C        -2.25755811561450      -0.49166421063737      -0.72851250699311
C         3.40932458024789      -0.47465110580489       0.35278960666697
H        -1.25486246563359       0.74670030087479      -2.21073650890926
H        -0.79321192339641      -0.96513700853793      -2.26072382084948
H         1.27787482946043      -1.62507376832000      -1.05753327935224
H        -0.37156280545086       2.13915656689402      -0.12568098441188
H         2.14026990150543       1.93555361008822       1.02555007465466
H        -2.04230126958337      -1.37404212419906      -0.12609363366202
H        -3.11396643375387      -0.70144516495455      -1.36741373285656
H        -2.50771699743757       0.33528112224410      -0.06414072298307
H         3.39521647946201      -1.55295036012522       0.50080281458674
H         4.00147350635787      -0.23911331602184      -0.53373314229106
H         3.81802495237759       0.02355445602868       1.22970327966854
S         2.19878648775999      -0.21833284091130      -3.67257018874311
O         1.01171653324777       0.55323734002555      -3.33613163412406
O         2.96557088323045      -0.64558661691244      -2.50234370941906
O         2.97846127553244       0.27267858071197      -4.77379441644826
C         1.46655073907802      -1.82944058260099      -4.23928015792735
F         0.61656829613801      -1.68004994278885      -5.24594404089489
F         0.76888452058795      -2.35178866686860      -3.20267647080124
F         2.38357651010885      -2.71968562008297      -4.58628355775486
