55
C15H20F18NP optimized with ForceField in AMS.
N         0.26187240683464      -0.11769215974585      -0.18135520722998
C        -0.60837113047282       0.68821266988509      -1.09844102466817
C        -0.49359123310137      -1.33934850877937       0.25005327069791
C        -1.97354884449187       1.06407063876318      -0.49842983404254
C        -1.87474263960352      -1.03857737872026       0.86742863734619
C         0.68008879766012       0.66867004215266       1.03127445209892
C         1.45105625066104      -0.55101831851746      -0.99265029434692
C        -2.72925611823055      -0.18878179565293      -0.06819758054536
C         1.54420012870357       1.91253453648566       0.75558269071591
C         2.52977194466860      -1.34354195358461      -0.23110345082173
H        -0.81485809973275       0.11326158902228      -2.03181336045320
H        -0.09827851395403       1.61405019600516      -1.43651786510488
H         0.07997848323318      -1.91541587534372       1.00779224934622
H        -0.65741677134172      -2.02218581192635      -0.61556579053357
H        -2.57218146383080       1.59458467624746      -1.27039366788191
H        -1.85986592204651       1.76375219398408       0.35501932075627
H        -1.76892997523859      -0.53543817136348       1.85106889634470
H        -2.40068017603310      -1.99957987279384       1.05602100245602
H        -0.19808999829873       1.01910164914818       1.60686025873909
H         1.23463822991104       0.01989299379240       1.74383276399015
H         1.12312717445377      -1.18934281837380      -1.84529284771043
H         1.94488001349019       0.32576954265779      -1.46687083093633
H        -3.66911082101634       0.10278337701030       0.44812423702356
H        -3.00127440274289      -0.78577442637877      -0.96663273531093
H         1.78408788441672       2.39938406286460       1.72391579481422
H         2.50724747290101       1.65160661122059       0.27421546909193
H         1.00397359929889       2.66285256409161       0.14601165800885
H         3.32754524537023      -1.63705029251766      -0.94578228270136
H         3.00989282425149      -0.73052119281780       0.55635738027917
H         2.12501426302420      -2.27662439696979       0.20767554245943
P         5.84963702649552      -0.95378514283238       5.72276649328248
F         7.09933071714481       0.20228475890699       5.98284147547828
F         6.00087723464491      -1.71697381665999       4.18481749041130
F         5.68702674310561      -0.57240869543641       7.39270914015202
C         7.37460484494289      -2.12473075287756       5.97713045574141
C         5.32736437148079       0.64810602913720       4.76784982701028
C         4.14613907976962      -1.76439813588267       6.14164477949437
C         8.12592732232998      -2.03646819570796       7.33227295800715
C         4.05509055697735       0.56803850467259       3.89781360763549
C         4.16529944055543      -3.05778458767334       6.97797163397880
F         8.31743649590293      -1.85734270853447       4.99195940940698
F         6.98553103754709      -3.43879784296662       5.80844845591785
F         6.34866227446175       1.02834963580802       3.90171493563696
F         5.12858110597927       1.67288841888373       5.68278977316066
F         3.50946159566119      -2.09397178472880       4.95865895966853
F         3.34175483739331      -0.84676230117758       6.80322906701286
F         9.10352077208185      -3.01546836229715       7.36108864232292
F         7.29034950210075      -2.24931574697890       8.40749904398725
F         8.75511774053640      -0.81454084097896       7.48794668098495
F         3.94757508134943       1.73709699238885       3.16571134748960
F         4.11706290373727      -0.48342886339990       3.00349269482108
F         2.91522088098646       0.46142629940253       4.66957277863367
F         4.65665373777469      -4.11551642610923       6.23790084328881
F         2.86675416306106      -3.37361873398862       7.33780260472248
F         4.89725530463655      -2.91525085211472       8.13544604167260
