61
C17H24F18NP optimized with ADF in AMS.
N        -1.17175810685279      -0.70003786553881       1.24396686736484
C        -1.22648601716349      -0.42855001020996      -0.24602935438042
C        -1.97973472303075      -1.96010639422198       1.53752290792235
C         0.28609975868130      -0.94492576533844       1.59817717794363
C        -1.73958335603268       0.46418227843237       2.04729457573004
C        -2.64295338220389      -0.30369837488669      -0.77975817097763
C        -3.40589227794131      -1.87816175395123       1.02065036428287
C        -3.45734935661540      -1.56009572812919      -0.47149505687010
C         0.59268788826122      -1.18143932187976       3.06515383718806
C        -0.97851379708965       1.76488854118052       1.91347941674161
C         2.10321015985518      -1.36222031533853       3.24569013127873
C         2.47746648351649      -1.62303395858531       4.70240064924876
H        -0.71466726453647      -1.28175494976113      -0.72135506070971
H        -0.62911123710540       0.47469604516663      -0.43220317363017
H        -1.96510709635397      -2.10860382160730       2.62353574029318
H        -1.42985228222018      -2.77820921185578       1.04342028723708
H         0.83985213734303      -0.07201411906205       1.21976207261685
H         0.59031720571014      -1.81586543414049       0.99514270062966
H        -2.77818202888009       0.58696762761163       1.72375099830729
H        -1.76895306088761       0.12380661134871       3.08726163481638
H        -2.56866099894483      -0.13941435173104      -1.86794641256610
H        -3.13454753926268       0.59172842924877      -0.36348985556066
H        -3.97987340928930      -1.14394145186657       1.60666904320575
H        -3.87333411740598      -2.85384196851661       1.23346893520181
H        -4.50021203688879      -1.42921723674385      -0.80082792261384
H        -3.04075068690445      -2.40874756481723      -1.04558135555310
H         0.07064413849005      -2.07406125642875       3.43987037865837
H         0.25143502334624      -0.33959167661343       3.68695174820702
H        -1.49816899478329       2.50352339179845       2.54268420321040
H         0.05133175536219       1.69308839273824       2.29004111632211
H        -0.96295695789304       2.15940532461598       0.88667273481890
H         2.62534930432006      -0.45788098375137       2.88153669952889
H         2.45170986146606      -2.20052870878871       2.61428017662846
H         1.99216513203364      -2.53687237338843       5.07646764201425
H         2.15118132647546      -0.79229030941584       5.34619491085313
H         3.56518681973531      -1.73922042624341       4.81441517603955
P        -2.93506366011190      -1.21721128994539       6.06742159863385
F        -3.78696252896832      -2.61423329923571       5.72811013485634
F        -3.62083288793092      -1.11326460397928       7.55876567670668
F        -2.18307809522566      -1.24284613847472       4.53746463458513
C        -1.48770542094268      -2.41258370021171       6.64731518075257
C        -4.55592435541585      -0.37168457941483       5.15410894456919
C        -1.97232360688249       0.51861793748290       6.49885821415424
C        -1.36390618191373      -3.84558666472092       6.01906855961289
C        -4.80696700403202       1.10843440503069       4.70624445535855
C        -0.92338246932691       0.72318525192532       7.65939475424830
F        -1.51222897393386      -2.64313235811595       8.00005585527269
F        -0.27364839301871      -1.81286238566288       6.35189476433499
F        -5.66135883488581      -0.68271307790464       5.90598223340022
F        -4.68066435384193      -1.06527567076444       3.94960228217604
F        -2.98745738024775       1.38908129118905       6.82849783703161
F        -1.34048358230159       1.05196139302200       5.37899179847798
F        -0.15070414883006      -4.36881731145381       6.37098676188655
F        -1.40180845188233      -3.83527117114955       4.65594710485513
F        -2.31150329564511      -4.69052568037208       6.46669747746147
F        -5.81354690015508       1.13353420704140       3.77969828322518
F        -5.18955543554288       1.91274259123180       5.71426610289229
F        -3.71069571492359       1.64988090109184       4.09919078065039
F        -1.19669035824943      -0.03661197823080       8.73720740951557
F        -0.94854068136477       2.02923318240639       8.05311813263932
F         0.34679917246305       0.47211574738587       7.25493048617456
