35
C9H17F6N2P optimized with ADF in AMS.
N         1.21059826025714       0.43407525872875       0.61326095709736
N        -0.63074171002000       0.83286785122036      -0.46946986742447
C         2.46271669656322      -0.20675601690887       1.04440231096703
C        -1.78062259883593       0.67073576206474      -1.37112845742706
C         0.29799693017766      -0.09415450624639      -0.21464985298391
C         3.59631570506845      -0.01590365124548       0.03737598357680
C        -3.10070364536858       0.71048181498060      -0.60966214626667
C         0.86038488615329       1.74347991221928       0.87107415985619
C        -0.29575285885997       1.99121523248426       0.19256609514648
C         3.42969921265951      -0.83788961295001      -1.23546238489666
C        -3.23866603432254      -0.41163082503076       0.41475128965369
H         2.24548144347314      -1.27496512592333       1.20565132759076
H         2.70989826429068       0.23443616687915       2.02157334495023
H        -1.63862074097838      -0.28912813868192      -1.88808400547622
H        -1.68821821352304       1.46466430769525      -2.12594908943981
H         0.32575300007998      -1.09015252176238      -0.63568609984462
H         3.66999765827485       1.05407365032666      -0.21934533904889
H         4.52819594324061      -0.29454776138253       0.55946198729270
H        -3.21392217465884       1.69394239263056      -0.12013704787161
H        -3.90682766231814       0.64772669466814      -1.36036053706362
H         1.48575065519790       2.39451374675145       1.46817732496130
H        -0.86770724768460       2.90235846175695       0.07723571588375
H         2.52879790387918      -0.54448283990779      -1.79134252434509
H         3.39573724164183      -1.91738571339309      -1.01047526197123
H         4.27233635216042      -0.65818846506539      -1.91871999641434
H        -2.44274954186451      -0.35926068047891       1.17448388591891
H        -3.18166760780882      -1.39849696073178      -0.07240826106672
H        -4.20275837750774      -0.35338395197622       0.94045553930929
P         1.40080540476216       2.00808660133214      -3.35455888280040
F         2.73329173349230       1.23645816747982      -3.92882868817851
F         2.07340531070772       2.02298647286857      -1.82093161996279
F         2.06010347333177       3.47304031957856      -3.66539150221719
F         0.03937573222310       2.75025084724458      -2.71229561302204
F         0.67963220863162       1.96178236965264      -4.82465089581359
F         0.71522392908456       0.50944062752240      -2.98974977296905
