43
C11H17F6N3O4S2 optimized with DFTB in AMS.
N         0.52681927743975      -1.24864675275386       0.92738434694564
N        -1.33366570336760      -0.19458963466061       1.17804149048465
C         1.94975501303834      -1.56221408266188       1.03073558552440
C         2.73376021025194      -1.02108360186793      -0.16564315261301
C         2.72590919494508       0.51012885307737      -0.23163407139922
C        -0.01398122148887      -0.09385075794816       1.30615923207597
C        -0.46718058884865      -2.10361588212312       0.53874525933008
C        -1.64290014535294      -1.43903444630494       0.70105851856198
C        -2.28984109315908       0.80968145121925       1.64566597947185
C         3.68209003068859       1.02099629935336      -1.30737845888309
C        -1.88686953476962       2.20603381201091       1.19358493633589
H         2.30761431011756      -1.12032195970290       1.96728719412127
H         2.04158204519645      -2.64892623286116       1.08998740583741
H         2.32369196565659      -1.43859048381532      -1.09070201747201
H         3.76295636683219      -1.37689691799446      -0.06221984422196
H         1.71271308354379       0.86035910811728      -0.45538963086106
H         3.01600903207020       0.91981129929513       0.74125527377810
H         0.52746811995885       0.75991487942014       1.66926012971996
H        -0.26323010241772      -3.10496480009476       0.20272909840820
H        -3.27258963908939       0.53433296399666       1.25544716434014
H        -2.30366611225933       0.75469067742884       2.73947758087624
H        -2.65797845416101      -1.74991424406725       0.52658067736995
H         3.40136027404388       0.63118630537958      -2.28688326132065
H         4.70426422107433       0.71036947182972      -1.08869724391836
H         3.64978910724057       2.10964760159815      -1.34308137596146
H        -0.97597867767387       2.52302422682781       1.69910622540262
H        -2.68447558369655       2.90084699513646       1.45254471430572
H        -1.72825484752156       2.23287276736398       0.11583829428939
N         1.67532943209372      -0.15074766174022       3.89617246053320
S         1.06288648713344       1.33342943163993       3.94691854470621
S         1.19405700706353      -1.18745142130274       5.03205975110780
C         1.67307311272807       2.23114723198995       5.48306079111131
C        -0.30761006698354      -2.06192891580373       4.31861721776237
O         1.68244259880791       2.03514801050548       2.83744813171359
O        -0.38814913943799       1.39753342788363       4.00570113488904
O         0.73947141013024      -0.58668424824122       6.25556507242052
O         2.16688750202327      -2.24305544677931       5.07543517371206
F         1.97662737309166       3.47151066055091       5.13733052688146
F         2.75314736223042       1.63957296303985       5.95359193854440
F         0.73726082912720       2.25940356059566       6.40556225640941
F        -0.87112539924391      -2.83962203917829       5.22177555499833
F         0.08512622020017      -2.82183840646025       3.28935499628969
F        -1.22604550085609      -1.21840081269793       3.85117590809199
