40
C12H22F3NO2 optimized with DFTB in AMS.
N         0.24401760473869       0.21109556065847       0.12927630789365
C        -0.26197016146479       0.45273127125947      -1.26614394156531
C         0.24903630860138      -1.26045345532448       0.43153590539980
C         1.65299955885462       0.75837616104255       0.15815384465403
C        -1.61237866320145      -0.19314081111169      -1.53807417659320
C        -1.08776818587074      -1.93353997770226       0.15378629215601
C        -1.51942345958538      -1.69696706150095      -1.29074476793422
C        -0.58296580432191       0.94521984813066       1.12039162949611
C         2.47459216524037       0.40145864499628       1.39182109275854
C         3.88231890461935       0.98861975629384       1.22541844239585
C         4.77013529693259       0.62004448911079       2.41115793642281
H         0.48199989691705       0.01580683955235      -1.93898955554887
H        -0.30030276226588       1.53447851551490      -1.41409536300411
H         0.51946882607924      -1.37760893664475       1.48175101613664
H         1.02764367235801      -1.70715594180233      -0.19199844712354
H         1.56535034720315       1.84375848868245       0.05342031744434
H         2.15271002894121       0.36474491040108      -0.72722888068607
H        -1.85938325329502       0.00132282634817      -2.58491198858516
H        -2.39973610789918       0.24994283859007      -0.92016840305155
H        -1.86089005432406      -1.57835569824983       0.84310028837126
H        -0.94932038878365      -3.00315970925629       0.33128271969208
H        -2.48595392901650      -2.17061311767590      -1.47706265838307
H        -0.77809467617097      -2.13139330151682      -1.96840433625258
H        -1.60621726263446       0.57959755200524       1.09016971876747
H        -0.16998922705099       0.78517428029901       2.11409110240780
H        -0.56632937413771       2.00686597945844       0.87954097218731
H         2.56880751702591      -0.68309283465803       1.47368713735874
H         2.00957082969733       0.78858184698719       2.30380074959857
H         3.82124350037804       2.07839787330838       1.13144400036044
H         4.32311700581357       0.59032651895199       0.30635646745905
H         4.86793834174684      -0.46308608361738       2.48781098626171
H         4.34885196881438       0.99952524500839       3.34363706345829
H         5.76260503523741       1.04989166102380       2.27698504407945
C         2.97687449097633      -1.68431815658802      -1.57231598009190
O         1.95080771995897      -1.41180972225455      -2.20728261135808
O         3.12035573979774      -1.98547022231650      -0.38827292273057
C         4.34152536539327      -1.51353852537055      -2.39171756386738
F         5.22293331302024      -2.49842562298602      -2.17451106993288
F         4.93900672529475      -0.35970479132231      -2.00171702243568
F         4.16095247848223      -1.42342972772489      -3.71551161181584
