26
C4H12F2N2O4S2 optimized with ForceField in AMS.
N        -0.00055932591063       0.02131099808125       0.00219554612259
C        -0.92982543182030      -1.07450648456349       0.35214741386066
C         0.65106710360579       0.52553131213581       1.23110778156888
C        -0.75533008354739       1.11807518645102      -0.64313401829590
C         1.03013316489736      -0.48505125931952      -0.93124965601103
H        -0.39018386480238      -1.90884693436772       0.85303791928648
H        -1.72484762295997      -0.71988112710089       1.04546616504817
H        -1.42643241662192      -1.47883863876355      -0.55806087473750
H         1.35130412794184       1.35871804950738       0.99804687932888
H        -0.10397668286651       0.90457980184242       1.95591851607566
H         1.23288280933115      -0.27994154375495       1.73319536982431
H        -0.08111932251206       1.96156847738856      -0.91277328134921
H        -1.25256106834748       0.76551308728814      -1.57468702909914
H        -1.54341330241825       1.51332504230266       0.03651828235952
H         1.74269712608763       0.32212924394589      -1.21389547594339
H         1.61501186193436      -1.31216850683537      -0.46974207527569
H         0.56629556204259      -0.87488643349845      -1.86520275161791
N        -2.21599902981821      -4.11431968197143       0.03464705731983
S        -1.06298129293147      -4.63610608757580      -1.00240941971264
S        -3.75433136642077      -4.66333380635662      -0.05450381558237
F        -1.33791241295372      -3.97369753258030      -2.51451305832964
F        -3.82801439179814      -6.19724185153538       0.61012319930881
O         0.28971584450893      -4.20634659487365      -0.51101935526310
O        -1.11097652094980      -6.13433808549843      -1.11027003111619
O        -4.19763202192997      -4.73120490486664      -1.48927530821504
O        -4.66111099604069      -3.74585148828093       0.71504541994495
