22
C8H12ClN optimized with ADF in AMS.
N        -0.48874002259031       0.05987933099301      -0.21479381188742
C         0.91205541314157       0.11925202010121      -0.65379568627999
C         1.90237603880041      -0.24183620626242       0.45046412875653
C         3.33828825097054      -0.16417619389424      -0.05630443183198
C        -1.13080511914327       1.22300123933191       0.16071047416522
C        -1.05754369697002      -1.16133464194280       0.01309907428524
C        -2.54486624364238       1.12987091109228       0.36532119142732
C        -2.36724479810117      -1.27435777272156       0.37995688657670
C        -3.14092644147219      -0.08985518215364       0.50452464630661
H         1.02044750778693      -0.55631502635905      -1.52017210209645
H         1.09483979146916       1.14583395933291      -1.00745402974602
H         1.68347558592383      -1.26117918456216       0.81375599242306
H         1.73545649823646       0.44403825305124       1.29697525218654
H         3.51019504210342      -0.85641022646665      -0.89675491802311
H         4.04807707279357      -0.42333349325961       0.74340631175748
H         3.58191935246811       0.85306124280001      -0.40134622046557
H        -0.71305108254007       2.12462301547986      -0.28211346588799
H        -0.41399653772184      -2.02187137101881      -0.16059490499766
H        -3.09910453169141       2.06097929914676       0.48007055313077
H        -2.80347046385544      -2.26023004489789       0.53103100254353
H        -4.21050200878635      -0.15881949457516       0.70818605124935
Cl       -0.36321702587955       1.86223460848481       2.16641675340783
