35
C9H18F3NO3S optimized with DFTB in AMS.
N         0.54219611287066       0.24555540537340      -0.18193348396870
C         0.13385754905772       0.66526812840351      -1.56663175021826
C         0.43856460633200      -1.25150559564187      -0.20005586242743
C        -0.92467599641447      -0.33697009215816      -2.01188168449159
C        -0.72567329524293      -1.57763098387304      -1.12983962870294
C         1.93724623226853       0.72439692451387       0.09471062998331
C        -0.40582779073140       0.80801835893092       0.81129293569956
C         2.52714664651719       0.20352547274028       1.40347325343311
C         4.04289648730627       0.40331089142024       1.37695842064753
H         1.01690413076487       0.60240416890187      -2.20486540379352
H        -0.21966190623591       1.69654970869325      -1.53596937321318
H         0.28666895816702      -1.61548273399075       0.81641483704192
H         1.37687656783957      -1.64326227353467      -0.59385739484543
H        -0.76832882714495      -0.58232364959891      -3.06339504190238
H        -1.93166614862587       0.07007023473335      -1.89361764305027
H        -1.63158460789794      -1.80281036448959      -0.56228226999734
H        -0.46757338108685      -2.44623231289667      -1.73728668800824
H         1.90545158736738       1.81726906708533       0.08922325493555
H         2.55599220549562       0.39046872762291      -0.73884154190311
H        -0.33793383825382       1.89453895994471       0.79236760347962
H        -1.41640570227323       0.49651661398640       0.55545487302847
H        -0.14905509169763       0.43984172671643       1.80245942875378
H         2.09304301480199       0.72811588870321       2.26040003460995
H         2.31778148358216      -0.86293102749193       1.51352146632260
H         4.47709859305277       0.05538990590081       2.31350884853050
H         4.47415743107471      -0.16736808246943       0.55428665062931
H         4.28914315807609       1.45724793798815       1.24531955990398
S         2.87131161372736      -1.24360464924028      -2.68510156422457
O         3.36675772716208      -1.66945607482070      -1.38081599068214
O         2.99034964792806       0.19089610634578      -2.91078963306376
O         1.56108199515096      -1.78262389178777      -3.02086170604330
C         4.02818418445866      -2.01280148800545      -3.90150484385919
F         4.00380274572858      -3.33470359230351      -3.79134178756961
F         5.26944052212270      -1.59577160303142      -3.68916807096538
F         3.68100187195205      -1.68779656157026      -5.14031727936889
