41
C11H22F3NO3S optimized with DFTB in AMS.
N        -0.90798603027258      -0.03871211993537      -0.19271290770092
C        -2.03514216833086      -0.05647197042271      -1.18372800485954
C        -1.11123548650583       1.25684141160087       0.53022431633267
C         0.41083500673142      -0.05396197610429      -0.90807192621767
C        -3.22531724798827       0.56085041656906      -0.45954768190454
C        -2.62360758729598       1.42492050916921       0.65966296551380
C        -1.03855491160231      -1.17765352001917       0.78350546622414
C         1.62386147013234       0.09379109874550       0.00253597745084
C        -0.80933416590066      -2.56080900429523       0.19308926262961
C         2.89137825044993      -0.00385807190885      -0.85754426860002
C         4.15069240549703       0.09503502732669      -0.00066310776850
H        -2.21492240066137      -1.07395566364575      -1.52618095132500
H        -1.72934355485712       0.54675728019249      -2.04040302879838
H        -0.59526655926158       1.23208660249528       1.49001991422293
H        -0.68385739924100       2.04745423772914      -0.09050264182895
H         0.47207401907181      -0.99352260224438      -1.45488398880547
H         0.38292431558653       0.75851849351051      -1.63761911656781
H        -3.81626634988369       1.15945401982679      -1.15444325915969
H        -3.87484385743980      -0.21184071488179      -0.04299931784462
H        -2.96894158589565       1.08972574665616       1.63997464879339
H        -2.89331793554057       2.47638005052367       0.54735238226252
H        -0.32334692542842      -0.99044809327259       1.58856199705294
H        -2.04571951146611      -1.11526979252252       1.20231868897163
H         1.60567209081767       1.05490386674032       0.52625911585918
H         1.64174383379213      -0.70124936178957       0.75321549233008
H        -0.96497162243552      -3.28497532532106       0.99288275157047
H         0.20254165179192      -2.68051422115343      -0.18751550886726
H        -1.50712541770947      -2.78133813991440      -0.61162955739569
H         2.88542300739636      -0.95689782813224      -1.39514469802382
H         2.88788390921943       0.80035068125493      -1.59997636161318
H         4.18096034851057      -0.71385907397551       0.73055648352309
H         4.17992126750161       1.04684755182151       0.53198904262256
H         5.03462856303974       0.02373237485066      -0.63394594505161
S        -0.55997737279447      -2.16743773395625      -3.40988055044952
O         0.60700942167347      -2.65806478155655      -2.69035259900839
O        -0.54240877773009      -0.72809367262176      -3.64291236671499
O        -1.82736314263191      -2.66007284646383      -2.88779140904702
C        -0.42394934465805      -2.91400090717383      -5.09376027066271
F        -0.43543346984459      -4.23861477630396      -5.02047867490075
F         0.70652742528205      -2.53577423978974      -5.67824563920446
F        -1.43947191211810      -2.52693475390799      -5.85629028603932
