39
C9H20F2N2O4S2 optimized with ADF in AMS.
C         3.57882123077708       0.83553365286018       1.03179696610532
C         2.27783402681688       1.53359209751740       0.66803020633309
H         1.62459501750424      -0.78341895922334      -0.72646697790177
H         1.38866081671758      -1.64736350840173       0.84244303319359
H         3.92123795841705      -0.93632072661969      -0.23713105948746
H         3.62308541553152      -1.31315369992621       1.47819501403543
H         3.79217798143480       0.93300634397583       2.10644967687443
H         4.42151812767998       1.28718994307239       0.48909275818797
H         2.03888542778005       2.43281758090158       1.25258830400206
H         2.23782170098613       1.77276087723266      -0.40645934143938
H         0.22433513046090      -0.44603597816262       2.54697353169299
C         0.95477823088983       0.35032135133079       2.37770623377963
H         1.89297409791682       0.07565966102690       2.87237679142541
H         0.57925890535651       1.30862678463815       2.75984587531699
C        -0.06707004371406       0.90772548528355       0.18710250514186
H        -0.30913997781391       1.89869506320511       0.60374006122218
H         0.21837918299994       1.04051490069000      -0.86882262481228
H        -1.46681173268179      -0.28057210455224       1.35568520955769
H        -2.54759400802717      -2.93566060213038      -1.09958230825054
C        -1.23687735349678      -1.29058881413962      -0.54887309250671
H        -0.99670235777501      -1.02207323740563      -1.59501070643343
H        -0.45916510360865      -1.98242480857789      -0.19637327937755
C        -2.57364210062585      -2.02413743473829      -0.48658537051427
H        -3.39778394918890      -1.38644717221550      -0.84454863268190
N         1.20245791907830       0.49116982674751       0.90505932184183
C         1.84122806946682      -0.77690158424711       0.35089791671579
C         3.34179617467668      -0.64717952262903       0.65083590660481
H        -2.78826578224758      -2.32976607717773       0.54852482158170
C        -1.26641414228299      -0.02068800537805       0.30394179341776
H        -2.12839317817402       0.59379452077227      -0.01570164536570
N         1.25658901852700      -2.94163773472048       2.68665209380436
S        -0.20427591603458      -3.62160893249506       2.66085535473811
S         1.90408273344556      -2.45818808038217       4.08396478010116
F        -1.20632530904553      -2.27871737510496       2.89343763391724
F         2.34318583782704      -3.85536119813510       4.81304351228175
O        -0.47874218810823      -3.98514787222121       1.28259256220157
O        -0.53739490353143      -4.49636633765108       3.76233820809819
O         0.99084304678729      -1.81350535582714       5.00920647984075
O         3.16333007987846      -1.80423284859206       3.74752058295735
