49
C13H21F6N3O4S2 optimized with ForceField in AMS.
N        -1.12283929855914      -1.73060056729632       0.21441472543740
N         1.09930968082995      -1.71135344369169       0.29628476531944
C        -2.51746389661442      -1.45858988131455       0.55721615266895
C         2.45927957170531      -1.40567628999085       0.73764212307927
C        -3.01528219609462      -0.17784936874675      -0.12705675044675
C         3.04155257363588      -0.21995267849367      -0.04540801023379
C        -0.04022387593741      -1.44165843686572       0.96228421204627
C        -0.65358287759840      -2.20798682242718      -0.95612967260605
C         0.72531477202873      -2.19875886601664      -0.90436623492774
C        -2.23092282912754       1.06051364901674       0.33157187211013
C         2.19209909657047       1.04875618060244       0.12403162610750
C        -2.79554332623113       2.33817235298075      -0.27990865279774
C         2.81639402006699       2.24313298007091      -0.58836660231789
H        -3.14729395215658      -2.31723305515967       0.23870916943176
H        -2.62595525606498      -1.35669340921822       1.65936163472282
H         2.46254961859041      -1.16430600762035       1.82356849606795
H         3.10175063057736      -2.30056192678001       0.59181532517841
H        -4.09004842334004      -0.04342732170636       0.12421520843906
H        -2.93015234660160      -0.28977301766217      -1.23001329820570
H         3.10999474248356      -0.48568407171780      -1.12278278826373
H         4.07098015271556      -0.02596035472223       0.32735555006045
H        -0.08085870980333      -0.98197892574149       1.94254877205303
H        -1.26518710602747      -2.51365307448127      -1.79497762476455
H         1.40198507356526      -2.49436626567275      -1.69548082132315
H        -2.26880419458393       1.14304879211878       1.43949612743813
H        -1.16998315694575       0.96887438822948       0.02157697646529
H         1.18256301255821       0.88255785274767      -0.30538765426003
H         2.08330658442569       1.28831091010350       1.20404120625928
H        -3.84777433849746       2.48781980196190       0.04195348111548
H        -2.75092770448778       2.28789215428559      -1.38866599948841
H        -2.19313418325565       3.20772574736293       0.05890079816067
H         2.88364455702085       2.04682227421491      -1.67865552241007
H         3.82901720500008       2.45124912803407      -0.18250319870254
H         2.17929026817524       3.13968890642242      -0.43508240273210
N         6.42287011295452       2.47476555851139      -5.15779861825209
S         6.04945914897281       0.87781683688372      -5.16314170165454
S         7.96654836558105       3.02641079058351      -5.21488240846664
C         5.92688740515796       0.29989810564729      -3.48270378700295
C         8.36009941080133       3.48278385747844      -6.89090019256275
O         4.72274537462884       0.68028267826200      -5.84069238029074
O         7.10619779807524       0.09052650525441      -5.88749934320924
O         8.92745886391703       1.96965078470449      -4.74451136852735
O         8.09147007005691       4.24329439936297      -4.34212607189283
F         5.57379324860590      -1.03594484161432      -3.47365671557771
F         4.96480334491308       1.02982795211178      -2.81449240580025
F         7.14199716467734       0.45680561739906      -2.84492947362758
F         9.66461661449912       3.93411111118574      -6.95624077977946
F         7.50801261241899       4.48709202658817      -7.30926102974543
F         8.21375220191754       2.38532071161499      -7.71716055459147
