53
C17H29F3N2O2 optimized with ForceField in AMS.
N         3.07842947914313       0.92266248214640       0.00145237913105
N         2.92196909356080      -1.28965582462174       0.18264755955921
C         1.47427773288160       2.78237145346595      -0.26281313086941
C         2.83949426594242       2.33720520701863       0.28446467846011
C         1.01085401581087      -2.61970266923120       1.02006544954064
C         2.51225792413276      -2.59888646842617       0.69073085998716
C         0.31358207017871       2.08957449998055       0.46734161568874
C         0.14517947773205      -2.29810444954252      -0.20860761947544
C        -1.04599855178811       2.53471306378146      -0.08103279582248
C        -1.34609795764705      -2.28811764578644       0.14682768608055
C         2.83034377578273      -0.11095442514432       0.82951521483803
C         3.34880021884794       0.37925625029866      -1.20256273244714
C         3.25926214531217      -0.99268080463577      -1.08849018388891
C        -2.18258585911437       1.83278414257968       0.67127829865886
C        -2.18716311292040      -1.79598984226786      -1.03849659471929
C        -3.54372053754581       2.16514332660386       0.07059015579661
C        -3.66738621133238      -1.72245273019526      -0.67644765246920
H         1.38275439704297       3.88250845758840      -0.13193513780312
H         1.42243709053732       2.56106655798482      -1.35130651246433
H         0.80324115770917      -1.88481256843409       1.82815439329841
H         0.74497740360743      -3.62863189396237       1.40345527679220
H         3.64238122317831       2.94529987171202      -0.18546293865882
H         2.88127982215128       2.51915589141141       1.38085568853148
H         3.09325191783609      -2.83117368868649       1.60872600111058
H         2.73580023896252      -3.38794892582227      -0.06063414193143
H         0.36933636527418       2.32345103305236       1.55317972529962
H         0.39706907456702       0.99021404586911       0.33970782471997
H         0.33135566143689      -3.05454170232750      -1.00197154101677
H         0.42333881991567      -1.29907355630994      -0.60662574323546
H        -1.15278398571220       3.63570186444649       0.03479820350171
H        -1.10480331483795       2.28157589072087      -1.16260881570671
H        -1.51306068568169      -1.61820058702149       1.01843962593855
H        -1.66460126391269      -3.31579375425735       0.42818229477350
H         2.49565856416177      -0.00282436219829       1.85391766097832
H         3.52953821806761       0.94101397228818      -2.11007498810778
H         3.35358541237343      -1.71409365823508      -1.89013880854053
H        -2.03711532069242       0.73410687715865       0.63437273789900
H        -2.16929491332914       2.14485942113097       1.73563119221004
H        -2.05966254645148      -2.48582868624377      -1.90074114172912
H        -1.84688887068527      -0.78363347233757      -1.34825209310884
H        -3.73193019239040       3.25839447883055       0.12127088323720
H        -3.58940544540036       1.82902525058565      -0.98721226179546
H        -4.33736617831071       1.63948452098682       0.64266097681732
H        -4.24107055577818      -1.33067045628695      -1.54279188264914
H        -3.82282916078413      -1.04093702420367       0.18655500942465
H        -4.05180408216055      -2.73222664650578      -0.41999597500740
C        -4.16805744169386       3.57085516108072       5.46545522697761
O        -3.88037112101827       2.96167574019479       6.48382655114996
O        -4.79285639677883       4.61644501825345       5.54497478697582
C        -3.75525686773334       3.04734828767036       4.12220538326356
F        -4.87588058230826       2.85465414525987       3.33530548161375
F        -3.08532657901757       1.84298579278398       4.25433388331639
F        -2.92114633692139       3.96397608569928       3.50901968207619
