33
C9H15F3N2O3S optimized with ADF in AMS.
N         0.06606658097473      -0.64477616607949       0.66916716192768
N         2.08481746852316      -0.76343844273873      -0.10815907560044
C        -1.05210244342855      -0.37229177243071       1.58535346347972
C        -2.07677446661178       0.57612655019102       0.97044630041883
C         1.35640278950071      -0.43407756460178       0.96584163659633
C        -0.03074972341845      -1.11661761339844      -0.62637326749414
C         3.55214339101046      -0.61658159106604      -0.18024245092841
C         1.24263767247906      -1.18790079771915      -1.11619300832654
C        -1.49242468178952       1.93022707463185       0.58427592487690
C         3.95300570231310       0.48995483558912      -1.13796460585856
H        -0.60199074047881       0.06671461597034       2.48844548662258
H        -1.50765658359961      -1.33800266169250       1.85634287578316
H        -2.54784880933834       0.09267878275015       0.09599136617136
H        -2.87931884993196       0.70044348610118       1.71744256147418
H         1.80271373475324      -0.02471466747999       1.89667898366275
H        -0.98044624298778      -1.35855155166558      -1.08624216098514
H         3.88321303537989      -0.37256083534844       0.84049662296830
H         3.96036446378531      -1.59785385917956      -0.46966723156833
H         1.61177292036704      -1.50402364376725      -2.08419238962143
H        -0.67854109723820       1.82267076889062      -0.14808792006517
H        -1.07642124573686       2.44692966017672       1.46044071658396
H        -2.26519863938198       2.57262014433619       0.13835944515066
H         3.61753562809451       0.28971754307688      -2.16683813539475
H         5.04914485954876       0.57414275836714      -1.13560597515760
H         3.54928090059052       1.44819420519022      -0.78274562391815
S         3.48193050080145       2.01124794455408       2.79347646694166
O         2.93463896925202       0.64059092179314       3.03389965594688
O         4.32828079231861       2.10059568033245       1.59363396880312
O         3.91279326002830       2.72107678490755       3.99221850155837
C         1.92454506908948       2.93493435516225       2.25776946597520
F         0.85192097362178       2.62037956758816       3.05099784433139
F         1.57534917487093       2.58769627778691       0.97194205057307
F         2.07554647763877       4.27689984607168       2.28566078907256
