35
C9H17F6N2P optimized with DFTB in AMS.
N         0.06561447031907      -0.61063199797391       0.58523297705330
N        -1.81600947621126       0.38867250634027       0.27506496664575
C         1.36070668470921      -0.94846801079216       1.17548757765588
C         2.50225247793894      -0.74177764949210       0.17704633317910
C         2.57672587525136       0.70210535956695      -0.32891690577540
C        -0.78360739008057       0.27092519157561       1.10372682478027
C        -0.43282411696395      -1.06339970596800      -0.60833781900116
C        -1.61794029289221      -0.42834060191455      -0.80603113270472
C        -2.89852322726943       1.35788202836729       0.43235970062446
C         3.76602146237742       0.90414432677706      -1.26317670614629
C        -2.69298083311196       2.53056067009456      -0.52031653186339
H         1.49134985697859      -0.29911689291730       2.04478309348091
H         1.32446168443618      -1.99223358048611       1.50362558582762
H         2.38469171669091      -1.43234194667414      -0.66464878018803
H         3.43065902410617      -1.00291405907605       0.69442381106225
H         1.65313448073090       0.94569591903792      -0.86165049384303
H         2.66182931538878       1.38095992950306       0.52322282909109
H        -0.65560232579021       0.80459904150364       2.02875731368550
H         0.08286034587759      -1.79035424642614      -1.21049754688944
H        -3.84542711910619       0.84685234419413       0.23370389959051
H        -2.87837710265389       1.70171099559847       1.46893618051689
H        -2.32735073229318      -0.49539914877258      -1.61220502450227
H         3.69631708980283       0.24049557212933      -2.12718576441218
H         4.70347439681521       0.70025557670599      -0.74337791579286
H         3.78054342999363       1.93527685438446      -1.61511783220819
H        -1.75331066649670       3.03280093239562      -0.29699497890484
H        -3.51172336815849       3.23678079460039      -0.39074277780254
H        -2.67822162950789       2.18751240688965      -1.55450922846263
P         0.54363871101121       3.31645156408867       1.84316245860954
F        -0.05800746634525       4.64951578618327       1.12594412494708
F         0.74112794805065       4.08412371909139       3.25644829609315
F        -1.01036534661945       2.86389117923859       2.29403859613870
F         1.10273556454981       1.88627807376850       2.52838104742386
F         0.30748959851471       2.45604086556008       0.41166433351827
F         2.05967393135743       3.67416238499813       1.36420443497285
