31
C11H17NO2 optimized with ADF in AMS.
N         0.96732507523700      -0.56500118432858       0.87522821032263
C        -1.21218564352728       0.09963643859980      -0.10672242251779
C        -0.46862585465703      -0.35674477487827       1.14302006769154
C        -2.70429033245343       0.30237792513232       0.14371626006335
C        -3.43705081533829       0.76252585201104      -1.11471314271287
C         1.81159443461250       0.46937976202827       1.02894835431001
C         1.35257086050233      -1.74962991018787       0.33665233875334
C         3.24795868064054       0.25744227186282       0.91733541819327
C         2.63231760994119      -1.82552695048728      -0.21894886489074
C         3.52643178247239      -0.79248950636596      -0.06650594996667
H        -1.06282298738481      -0.64941185415942      -0.90416165528901
H        -0.76000357436929       1.04062286088957      -0.46789421496895
H        -0.86913606193639      -1.31137218651706       1.51867231922179
H        -0.55403907349304       0.37909653531264       1.95673141789724
H        -3.14912176226261      -0.64167289150827       0.50861564928996
H        -2.84657937636461       1.04517422261456       0.94970019919805
H        -4.51055083726051       0.90729883457108      -0.92546172705594
H        -3.02524417766691       1.71663087112150      -1.48119703948991
H        -3.33139936271558       0.02187192471452      -1.92356601031498
H         1.38018367244683       1.41127192202524       1.35595128978825
H         0.59778504873724      -2.52607605829681       0.26672016188784
H         3.78098506110223       1.19937254135845       0.74625800992337
H         2.88751913736785      -2.70056154710269      -0.81847079166220
H         4.47354040459041      -0.79574134936187      -0.60711582124402
C         5.99687511569347       0.51824885976899       1.82279601966244
C         4.98018115761044      -0.04617031181460       2.79512093190927
O         5.29140639383184      -0.36805190140252       3.93157835499700
O         3.70741454514382      -0.19553484686792       2.37881786954703
H         5.74882346196422       1.54921987478252       1.52652850635686
H         6.97536430335244       0.52153077810615       2.31860841823981
H         6.05558493058306      -0.08793064482035       0.90816351746004
