32
C8H15F6N2P optimized with ForceField in AMS.
H         0.48586484024206      -0.47309884524166      -4.91284803582795
H        -1.17726475364560      -0.69582972184071      -4.24197149888687
H         0.01203590874373      -2.05372817117084      -4.16765509397832
C        -0.10483991281578      -0.95138641345515      -4.10350493869408
H         2.48714947354861      -0.01071809021530      -0.38075492677087
H         2.43169662368919      -1.12646220424305      -2.81171012403489
H        -1.38288086588748       0.44666648334089      -1.96806474549673
N         0.36971249431135      -0.48350344410545      -2.80738688564971
C        -0.33899455348174       0.17455725253744      -1.86927394332780
N         0.41661661653462       0.43824689677873      -0.78560689710753
C         1.63936828422491      -0.06431176334838      -1.04920039455543
C         1.61053497404648      -0.63675404983154      -2.30464310821676
C        -0.00299961907053       1.11960312801141       0.43630232605238
H         0.77465593912080       1.85778228489199       0.73173747396416
H        -0.94992980477018       1.67315771827078       0.25098571490059
C        -0.21884225991908       0.10020267959805       1.55813967342107
H         0.72983836043704      -0.45052773273953       1.74134089262094
H        -0.99513046939712      -0.62885179742052       1.23679987865784
C        -0.66711248214265       0.78515997118101       2.85359167443053
H         0.11822264300498       1.49592733164713       3.19132710898244
H        -1.60554286190262       1.35366826793164       2.67359434776994
C        -0.91639355768613      -0.23690887454027       3.95921724468404
H         0.01334161594134      -0.80443295662464       4.17764273981766
H        -1.71671910767759      -0.94584684824378       3.65702771996115
H        -1.23808753088657       0.28751310239568       4.88343857537199
P         5.74648282638227      -2.59519621074590      -0.70653819089440
F         7.15461208033359      -3.47081480584173      -1.15287061912291
F         6.45720970645249      -1.11190582588631      -1.20043186680048
F         5.08848102188425      -2.74520128775850      -2.28571896454421
F         4.34000865233839      -1.77229218684564      -0.17122723926562
F         4.99674843353060      -4.07275610500520      -0.25586554559811
F         6.40225094481636      -2.38594712528066       0.86660387843795
