26
C8H15ClN2 optimized with ForceField in AMS.
H         0.51680442697626      -0.51787764329735      -4.89288446640502
H        -1.10843302051947      -0.87890712422919      -4.18791289163829
H         0.19234971007819      -2.12753684288201      -4.12979964682943
C        -0.01593827165381      -1.03838943230886      -4.06965062928949
H         2.51773819269370       0.00423409358830      -0.33353519628331
H         2.51048809839078      -1.13595885807879      -2.75103268733497
H        -1.33897174615538       0.38738962802406      -1.98067466227632
N         0.44012069936130      -0.52231567610142      -2.78513252719791
C        -0.29127057622583       0.13806807232721      -1.86592808959117
N         0.44660514904642       0.43245508480766      -0.77689416272279
C         1.68020683467248      -0.05688297806920      -1.01655926876105
C         1.67689558164825      -0.64509942403852      -2.26523960579994
C        -0.00429283212259       1.12027698501935       0.43062343027567
H         0.75783899127898       1.87164806061043       0.73335827307585
H        -0.95491583091660       1.65942089694431       0.22293596606102
C        -0.22875682138575       0.11070834349313       1.55922987232209
H         0.72300271381748      -0.42630783984959       1.76558496109817
H        -0.99086520634156      -0.63083625527592       1.23232984788796
C        -0.70936214493242       0.80568972261375       2.83764388286872
H         0.05472987186142       1.53964355386301       3.17494155919778
H        -1.65819039237234       1.34956986497768       2.63645126863976
C        -0.94956437899868      -0.20530219322412       3.95453062925511
H        -0.01019577642042      -0.74939673630017       4.19062779846313
H        -1.73095619686348      -0.93507757174455       3.65247410488110
H        -1.29269742948622       0.32520247773536       4.86745031816491
Cl       -3.07672783393070       1.01732234119546      -5.52500772116158
