47
C13H26F3NO3S optimized with ForceField in AMS.
N        -1.62616611244070      -0.28802808047730      -0.17187233241817
C        -1.91577626388943       1.12366737951631       0.22433072858134
C        -2.62860717900024      -1.20847912704725       0.45230329196013
C        -0.28373828673410      -0.70493174084677       0.35484530137514
C        -3.36338737925514       1.55974274447722      -0.07214994046777
C        -4.09452896075106      -0.82817850998397       0.17644121774749
C        -4.36677038301680       0.61595926120732       0.58438939198839
C        -1.64814653073503      -0.44056073147134      -1.65235589698969
C         0.93726463969629       0.07271828520621      -0.19780422634235
C         2.23551620791293      -0.45791476251504       0.42812377509566
C         3.46616474208599       0.26545097614565      -0.13220791847189
C         4.75560854894228      -0.28584468559121       0.48934370647206
C         5.98553271703048       0.41601308748303      -0.07757941109070
H        -1.24522860687303       1.83170670841970      -0.30858021421439
H        -1.73507090953934       1.26165076076905       1.31539513261963
H        -2.50145056897089      -1.22015315345569       1.56053556501552
H        -2.46873203881714      -2.25506378945088       0.10550045278613
H        -0.26633577109433      -0.60736674561480       1.46528423847602
H        -0.11559212850936      -1.78549929476395       0.13624417606769
H        -3.52202171017377       2.58510479061311       0.32591198664055
H        -3.54278732252620       1.60556384665869      -1.16704840502013
H        -4.35720282203484      -0.98553000553290      -0.88981755347232
H        -4.75595828790908      -1.49810331107225       0.76723714038554
H        -4.29720975679243       0.70944213907873       1.69044535703661
H        -5.39747671195585       0.89808882065122       0.27887833243279
H        -0.99486747055177       0.30688344885807      -2.14945784048880
H        -1.32027840650042      -1.45988805942012      -1.95435678525170
H        -2.65607715660784      -0.28037286961756      -2.08029899919101
H         1.01331550030899      -0.05394306535032      -1.29729852539381
H         0.85182410527776       1.15319168998321       0.03892690909809
H         2.19729542836773      -0.31610776134126       1.53076871781122
H         2.32667892711976      -1.54636946451829       0.21637122284711
H         3.38654186853980       1.35297754318865       0.08745571133778
H         3.50309695465464       0.12890654964640      -1.23562042877161
H         4.83727799558450      -1.37526022498384       0.28239694458266
H         4.73371160142677      -0.13784888498247       1.59114169606644
H         6.04663279208084       0.26256205636585      -1.17609588234231
H         5.93794399480969       1.50328732785777       0.13989215419202
H         6.90233327063670      -0.00059876724351       0.39055790867717
S         8.48835322503898       3.95529481456430       0.66843602329245
O         9.64740937399470       4.66577125781958      -0.04592209754347
O         7.55058201225883       3.57278496430556      -0.48576186793882
O         7.74373115604922       5.10890572202085       1.35646203515155
C         8.97652887415350       2.59097097073882       1.76063908409530
F         9.81384796723839       3.07103610456465       2.74946021317350
F         9.63821389245019       1.62614558074456       1.02558286304801
F         7.85095950221984       2.03750186569621       2.34007003315497
