45
C13H25BF4N2 optimized with DFTB in AMS.
N         0.77861126092962       2.57927523628598       0.27997079496380
N        -1.35463495852534       2.67696940056779       0.53482499038105
C         2.09604316248256       2.52441423780997      -0.35099931064382
C        -2.78339069647492       2.71872117910936       0.22935024451410
C         2.76431766875219       1.17101710448743      -0.09711030835140
C        -3.21643603593715       1.45835443048658      -0.52565913792548
C         1.93829235241091       0.01289860430637      -0.66303242230776
C        -2.82026273098687       0.17156906772180       0.20168036106279
C        -0.37310253923168       2.74885245250673      -0.36310847044068
C         0.52923782916465       2.38172352288115       1.61239904825944
C        -0.81859302280234       2.43793960340645       1.77152145614900
C         2.62372507151333      -1.33442539972847      -0.42446730322182
C        -3.14592713687619      -1.05514842556133      -0.65553583760843
C         1.77283765499704      -2.47851006392265      -0.97336064971687
C        -2.73440795903980      -2.34607826008147       0.04892441183433
H         2.70380196935423       3.33666396272920       0.05984013601423
H         1.94652904363684       2.68269349863071      -1.42153256141069
H        -2.97248129910526       3.60658494465305      -0.38049232687422
H        -3.31620803013624       2.81673216057313       1.17923247821815
H         2.92248170840595       1.03410824424417       0.97809697600338
H         3.74661148270033       1.19892333287311      -0.57840257893792
H        -4.30243561435693       1.50574202385848      -0.64783449544084
H        -2.76048554557051       1.46963441363868      -1.51755023923472
H         1.78989179133477       0.16695553860986      -1.73479017693604
H         0.95086783422983       0.00692282938634      -0.19209038310749
H        -3.33775373405949       0.11105762808799       1.16669048909148
H        -1.74305554986257       0.18578586327232       0.39460267397952
H        -0.49665332476070       2.92076174836984      -1.42100260006503
H         1.31540574256547       2.22307491049050       2.32916794286455
H        -1.43025699206786       2.33408902768680       2.65045602640832
H         2.78569275467011      -1.48101056336447       0.64997242228308
H         3.60388815970002      -1.34003799613046      -0.91380793716055
H        -4.21917765066031      -1.08041571549326      -0.87248171483475
H        -2.60771039051964      -0.97227056352074      -1.60418149853558
H         1.61003208127119      -2.35086949709295      -2.04379361388441
H         0.80159500386895      -2.50177704090327      -0.47685938513816
H         2.27248123621074      -3.43324191866755      -0.80640290636378
H        -3.26442131375150      -2.45578182920615       0.99692223267717
H        -1.66176632191889      -2.34415663372162       0.24960528115737
H        -2.96695594670856      -3.20502064513257      -0.58081530994272
B        -0.50163544149168       1.32208806681031      -3.04053751818626
F         0.76335039626209       1.95060538709057      -2.95011986730914
F        -0.59956545867742       0.51732446617147      -4.13448170312854
F        -1.48319588096799       2.34071853470633      -3.03040129625269
F        -0.67767852257104       0.58125501467444      -1.83462545680197
