42
C10H18F6N2O4S2 optimized with DFTB in AMS.
N         0.79321136482781       0.27940840007440       0.10239639783841
C        -0.40023545508397       1.04551076321025      -0.38574309211067
C         0.45116496209697      -1.18047881471052       0.19245542173680
C        -1.64217739590644       0.82204666101627       0.46885605284297
C        -0.77458776067376      -1.44368086909169       1.05658736096335
C         1.88920535669614       0.48156103269733      -0.91662010156475
C        -1.98478609944378      -0.66443178207728       0.55073283808925
C         1.24690633983951       0.80752774180151       1.41604241725571
C         3.21640799392992      -0.18246055081136      -0.58603501108906
H        -0.59240720791352       0.71885361348100      -1.41192992590784
H        -0.12487793750865       2.10291511198284      -0.39703827400979
H         1.31634608951206      -1.69571553853764       0.61045294262474
H         0.27980120593448      -1.52830560192898      -0.83026691824847
H        -2.46341297815757       1.37208914861416       0.00164241106598
H        -1.49701414954423       1.23106438738697       1.47179379773314
H        -0.56377961646375      -1.19105230551808       2.09799592572767
H        -0.97476909060173      -2.51700366896244       1.01523660704548
H         1.50401030442788       0.09830576363213      -1.86596062879916
H         2.02641961726896       1.56275859062055      -1.00851314062436
H        -2.82872987329012      -0.80882997265747       1.22890016140215
H        -2.27613785797565      -1.02864527543435      -0.44011129442560
H         0.44532312260170       0.73576712841245       2.14479316079389
H         2.08961190914734       0.21503265305901       1.75159585245100
H         1.54984816913707       1.84557154808919       1.29504285544153
H         3.89004214199101       0.01013884282095      -1.42117465709114
H         3.66387068108237       0.22787976676311       0.31614240260515
H         3.11522745740083      -1.25840445301496      -0.46704082793665
N         2.69880116917246      -0.44782918065512       4.01233443768355
S         4.09704213761034       0.29597880897802       3.70487269269052
S         2.47465797932287      -1.84529619251149       3.27045656328520
C         3.85891674963785       1.66970546303483       4.92571012721344
C         3.40159829459439      -3.17904247100286       4.21090188820572
O         5.27940844927597      -0.42743740164446       4.09068200518310
O         4.11135684529778       0.96158764894374       2.41199334900428
O         2.99433786349641      -1.92734079583328       1.91080942306077
O         1.07597674018098      -2.18106402299652       3.43542039205922
F         4.89656568502940       2.48630740737383       4.89934398558296
F         3.70998142098175       1.19603639561615       6.14995231839961
F         2.76758776929129       2.35693613943443       4.59874601055879
F         2.74214238289133      -4.32075491981287       4.08863205797904
F         3.47207173266208      -2.85838629924184       5.49113384591254
F         4.61671487282421      -3.33177887109993       3.72704820397152
