49
C13H21F6N3O4S2 optimized with ForceField in AMS.
N        -1.12951895683093      -1.73182286640534       0.21630564018188
N         1.09264003705099      -1.70211928334713       0.29347168053315
C        -2.52376931053294      -1.45658328300838       0.55834239058445
C         2.45291065758846      -1.40248274031830       0.73706736814232
C        -3.01945390300431      -0.18032424066560      -0.13574519346284
C         3.04605622792872      -0.22345150533671      -0.04707852937901
C        -0.04661110001871      -1.44573867510300       0.96520968187056
C        -0.66047526480260      -2.19289631193687      -0.96064920448086
C         0.71896945663041      -2.17814600555058      -0.91140672311074
C        -2.24319328220702       1.06056902127274       0.32909290915620
C         2.20944708082401       1.05322034554444       0.12075815985909
C        -2.80987585209159       2.33614628250840      -0.28465628197929
C         2.85306226934254       2.23923721530030      -0.58929449282109
H        -3.15507480205206      -2.31637151991292       0.24587089954879
H        -2.63086399378702      -1.34671428892335       1.65997502511720
H         2.45597402271035      -1.16172326821155       1.82311627860576
H         3.08837677730316      -2.29997812542526       0.58852080613238
H        -4.09803048027729      -0.04919763718286       0.10007057981025
H        -2.92063105504313      -0.29446446786208      -1.23741884483064
H         3.11119902078192      -0.49003384821554      -1.12443664543620
H         4.07870890180597      -0.04008123839202       0.32242158614746
H        -0.08714916247757      -0.99600016435317       1.94972094375059
H        -1.27459112990902      -2.48503702362082      -1.80262749905441
H         1.39798684828039      -2.45779492276505      -1.70652075596613
H        -2.28771759512677       1.14217802711124       1.43687927071447
H        -1.17965922062523       0.97171098195695       0.02603355932362
H         1.19933114389766       0.89647181121059      -0.31174841723419
H         2.09797336909236       1.29387603013848       1.20037925883969
H        -3.86355965969744       2.48299743050497       0.03370035903038
H        -2.76251322567158       2.28486187201399      -1.39315084310478
H        -2.21121390851863       3.20740288768791       0.05609414242302
H         2.95869631696585       2.02752655006581      -1.67456664068462
H         3.85277287781929       2.45343481398070      -0.15595617895446
H         2.21143337864807       3.13714120752181      -0.46418848117493
N         8.00451744312397      -2.24403991936705       0.77636030381901
S         7.37408215416060      -3.42881772988329      -0.16384510618561
S         9.36928990244714      -2.44552268565635       1.66131585308728
C         6.20914427736799      -4.37715454760223       0.79274658163803
C        10.74618129532267      -1.74816478936120       0.77376423335338
O         6.65490723245134      -2.80377398698886      -1.32566577210669
O         8.45998557596193      -4.33649310200680      -0.67192541512116
O         9.62843998844759      -3.90367158683028       1.92170131226367
O         9.21870038270850      -1.71973291096503       2.96824076637630
F         5.61935789040959      -5.33238617242353      -0.01303658240986
F         5.23547215250441      -3.53745711404122       1.29648124159440
F         6.85907759975422      -5.00011751280508       1.84086792691546
F        11.90398637921181      -1.92430823913606       1.50717720366848
F        10.53108374724744      -0.39770588420692       0.57411671061048
F        10.87922250758445      -2.37607967040794      -0.45015230620026
