37
C9H20F6NP optimized with ADF in AMS.
N         0.61850587099102      -0.34658794981148      -0.31665267104585
C        -0.15828384722276       0.44656452822143      -1.34334374402434
C        -0.32593258147661      -1.28068013053105       0.40874570110812
C        -1.33752052406183       1.19223516313649      -0.74452717813233
C        -1.55556369936509      -0.59392774828293       0.98592371764738
C         1.31899552424539       0.56970002504660       0.69550700547316
C         1.65950493809568      -1.18001528590153      -1.07852108267464
C        -2.30160947501241       0.22004949289855      -0.06798678647305
C         1.88359789381332       1.85524836566008       0.13026455291861
C         2.32418639573695      -2.27678162493135      -0.27539774688265
H        -0.51401942569840      -0.29040949572871      -2.08086168830741
H         0.56284874278757       1.10537083314307      -1.84478147920878
H         0.26202480300975      -1.77899331095686       1.19126253426588
H        -0.62335019473476      -2.03847904919985      -0.33441922150546
H        -1.83381622841503       1.74197332747815      -1.56162762139077
H        -0.99120206208787       1.94957079078617      -0.02267829988592
H        -1.27615076431613       0.05294788646741       1.83399951471253
H        -2.19877570093601      -1.38524528769676       1.40664898809519
H         0.58356400657883       0.77579520919911       1.48289824598928
H         2.12634590256202      -0.04002782260285       1.11990131419873
H         1.11159989828742      -1.60855877090707      -1.93199651886529
H         2.40481478723557      -0.46785640955238      -1.46137021351198
H        -3.14441673940405       0.76141024824819       0.39058659880943
H        -2.73040958373822      -0.45987973894379      -0.82640901727798
H         2.53951495460835       2.28614561761212       0.90196505646861
H         2.52874339988356       1.68780868831964      -0.74251253007263
H         1.10335403661025       2.59356894135919      -0.10192275502356
H         3.15797163764330      -2.64605448807908      -0.89136689611632
H         2.79271219922989      -1.90615364418473       0.64531097395143
H         1.65090540656334      -3.11575962093570      -0.04918120783751
P         5.27793384508158       0.27316358718994      -1.29365815524591
F         4.88344982461865      -1.25425731312919      -1.82466222997895
F         4.29666614272925       0.01445823073650       0.05614438890446
F         6.55867959891283      -0.31881361991930      -0.46738704081745
F         5.56745165453938       1.79912205720449      -0.75453053974618
F         6.18100185978129       0.52722593554327      -2.63181980862574
F         3.91108406492394       0.84910791474421      -2.11580735199212
