38
C12H23ClN2 optimized with ADF in AMS.
N         0.19797824435031       2.28007394285713      -0.02238580139061
N        -1.85893714666595       1.58060654156704      -0.15627187897187
C         1.65238237907428       2.36511948074549      -0.22622892302734
C         2.38195340989945       1.21699919791863       0.46737860381809
C        -3.02957166516678       0.77293840461510      -0.53073931561416
C         2.25037113517300      -0.11391328475007      -0.26522965565205
C        -2.99934561148187      -0.60248346308025       0.13273816743873
C        -0.65037997652321       1.52321539497113      -0.73575129299651
C        -0.46963849005343       2.76682594372660       1.07597392303425
C        -1.75804366548683       2.32977470442853       0.99146660801764
C         2.84810798265878      -1.27268051929919       0.52961972195568
C        -2.01127167548503      -1.56915898261709      -0.51524860648808
C         2.70645041991046      -2.60376138224333      -0.20217923576704
C        -1.92863213939308      -2.88719218397771       0.24920018860773
H         1.95961499922326       3.34475531648951       0.16946862565555
H         1.83192385515393       2.37185090403829      -1.31383452425966
H         3.44409374712630       1.50442954261997       0.56487720894871
H         1.94808587957739       1.08710075404448       1.47722348523893
H        -3.91274591339191       1.35459824798059      -0.22676117854481
H        -3.03894576096037       0.69879310578104      -1.63047120625191
H         2.71300350731770      -0.04729950699604      -1.27082332465123
H         1.17675760370661      -0.34181921958969      -0.38256448841188
H        -4.02457614301532      -1.01412436433338       0.09607513939592
H        -2.69943788201477      -0.47530253945046       1.19057061801157
H        -0.40925919171183       0.98857937381155      -1.64349118015976
H         0.03203076327597       3.34112597985796       1.84279750317949
H        -2.59018723306062       2.44974292645669       1.67174512555133
H         2.29994497032573      -1.31704578008380       1.48731121942820
H         3.91197702668139      -1.06908181853343       0.75167446478849
H        -2.28587514202845      -1.73588338972329      -1.57506638407036
H        -1.00837076222480      -1.11184723048907      -0.47202915588040
H         3.21388970263779      -2.58388657684461      -1.18165193034359
H         1.64134900281577      -2.82991839963545      -0.37207583320119
H         3.13404263241678      -3.43172450336831       0.38356009137860
H        -1.54005597757628      -2.67985689997497       1.25889064842920
H        -1.24291379059815      -3.59038147353827      -0.24669188269872
H        -2.91542487772661      -3.37187858513626       0.33033918981366
Cl       -0.23590845185962      -0.24691536674511       2.15528500688938
