38
C12H19F3N2O2 optimized with ADF in AMS.
N         0.64799581781883      -1.58630485624222       0.95602538661128
N         2.58083886447028      -0.59436096313362       1.01314061181632
C        -1.81212265202263      -1.77650899622875       0.71686210042376
C        -1.97868738447706      -0.47658898530556      -0.06694325882808
C        -0.45831711618376      -2.43916816737882       0.50169900652884
C        -3.33108839457815       0.19813975817173       0.15370153454177
C        -3.48631301479888       1.49140692626711      -0.64547611222409
C         1.69262644586685      -1.20317476700141       0.21343899271788
C         0.88790908868132      -1.24654686545832       2.26781800151171
C        -4.83535094707226       2.17026699688280      -0.42062084346502
C         2.10229477964511      -0.62816585875222       2.30492361138938
C         3.96797626753590      -0.30660632568285       0.66174896220329
H        -1.97051401240368      -1.59294962917739       1.79447259531476
H        -2.58490660515098      -2.50527805172142       0.41550136928546
H        -1.84928580758338      -0.68565306565437      -1.14584445926861
H        -1.17469698316423       0.22861904722191       0.21494865831823
H        -0.27887244494662      -2.64163392745756      -0.56386914643858
H        -0.32827325659208      -3.38845918423643       1.04835451126385
H        -4.14233675171629      -0.50158245904980      -0.12239041764422
H        -3.46163633245444       0.41646053673240       1.23025403402946
H        -2.66955580349773       2.18411348690547      -0.37105167085592
H        -3.35488188156485       1.26835607824263      -1.72013465635066
H         1.82113426903469      -1.40014093475003      -0.84235104009513
H         0.22030925521446      -1.53560282071005       3.06750091005097
H         2.69085116411744      -0.27460192491609       3.14101709289819
H        -4.97344785172304       2.42825583301250       0.64159066026564
H        -4.92736012084031       3.09781080869018      -1.00589357856405
H        -5.66356964808748       1.50497558085608      -0.71270313741318
H         4.56638232595689      -1.14651695955425       1.04976137377508
H         4.05655593160977      -0.24818805526080      -0.42815172506546
H         4.26518947105135       0.64932200725324       1.10957351818632
C         2.78839963995989      -3.69061935032683       1.64776692731570
O         1.68520149988010      -4.04415726255100       2.12409625620620
O         3.72752012106411      -3.00778235677563       2.12217647989112
C         3.04627069236647      -4.20542061613851       0.17569149985270
F         3.63871502168195      -5.43384853196311       0.17384145384866
F         3.86428969895534      -3.36966782609279      -0.56576990993775
F         1.89091264394712      -4.32367547401623      -0.57591463689582
