43
C13H27NO2 optimized with DFTB in AMS.
N         1.40999566929420       0.62723710969529       0.34118091387098
C         1.95287461598960      -0.75348249740937       0.18488373395260
C         2.34784902469246       1.47759672908437      -0.46455791080881
C         0.00961169672802       0.76376456904832      -0.18001790829662
C         3.47198948204932      -0.59254148287453       0.17236453931980
C         3.72664048161220       0.86068365815009      -0.26205968777588
C         1.45953414532875       1.07478179221185       1.75837405776369
C        -0.96591334081096      -0.26316451046648       0.38304158364266
C        -2.37133290373130       0.04670609256421      -0.14712213476132
C        -3.39897167143435      -0.95076074904642       0.39427365740786
C        -4.80733850176252      -0.62346722562695      -0.11222482859607
C        -5.83660824662457      -1.61902970459909       0.42001307005398
H         1.59319267595193      -1.14195078204779      -0.77060271456216
H         1.59321652771201      -1.38749670228139       0.99566163623008
H         2.25832094461744       2.50655825852278      -0.11687576395085
H         2.02820417489141       1.43432179650442      -1.50607724530916
H         0.05922076852481       0.69262442804881      -1.26773162083756
H        -0.30010614438182       1.77856371010862       0.07971647550550
H         3.91906603630627      -1.30589175975897      -0.52210159286544
H         3.88799558310642      -0.77988991375688       1.16468339600160
H         4.28879149657052       1.39680141834937       0.50542447308267
H         4.29738835537016       0.90384318925434      -1.19099568408725
H         0.81803660668214       0.44003620797528       2.36567038600697
H         2.48346591044031       1.01593332591970       2.12014360390932
H         1.10985858913677       2.10928456885993       1.78010447038282
H        -0.67997185336924      -1.27647065471824       0.08289361238529
H        -0.98031707835765      -0.22597688491528       1.47626554433269
H        -2.36286590426172       0.00931179040277      -1.24113374270815
H        -2.65246120138613       1.06168212738966       0.15048249778836
H        -3.38975995921115      -0.92568392713952       1.48963181980157
H        -3.12378185080169      -1.96439525885681       0.08173054303577
H        -5.08125208581880       0.38810716120068       0.20518001761979
H        -4.81368351124867      -0.64340492369338      -1.20718197315770
H        -5.85920303488973      -1.59975283237501       1.51059822162218
H        -6.82931364088795      -1.36523640354033       0.04771748915105
H        -5.59259597803410      -2.63194510049904       0.09622544506202
C        -0.11222155107822       5.39233880771664      -1.05045865167294
C         0.32604649702469       3.94464585204272      -0.73090657295527
O         0.42436911056965       3.15207583330925      -1.68808887552155
O         0.53724309609048       3.68266370207555       0.48004795200850
H        -1.16649423099886       5.49473184437519      -0.79387720644903
H         0.46321463978115       6.09247041701149      -0.44751969560612
H         0.02307331141878       5.60368943988414      -2.10916150501589
