49
C15H14F18NP optimized with DFTB in AMS.
N         0.91991560631376       1.19370124422527      -0.09457379476748
C        -1.38347360227115       0.73339910961073      -0.80376883401057
C        -0.46438040608222       1.06053972001393       0.37825457689414
C        -2.82870595453615       0.54332793993300      -0.33861777121736
C        -3.73464283994803       0.24618763135911      -1.53228066121801
C         1.41995810110738       2.40903747227576      -0.36908219374394
C         1.62763137913314       0.07971283387570      -0.34916590164376
C         2.68748797965913       2.54126482080239      -0.89647329857401
C         2.89262237329969       0.16078673456498      -0.89021581142095
C         3.43680464927622       1.40656745939775      -1.17477320081947
H        -1.02489840583214      -0.17431726747246      -1.29693481579178
H        -1.33499661272648       1.54830845355761      -1.52798958118514
H        -0.49199421656780       0.26344981612962       1.12634058645000
H        -0.75625362656824       2.00218186745043       0.84881862867635
H        -2.87968969590118      -0.28118173455960       0.38094346091185
H        -3.17164474736233       1.45263333007914       0.16605530325830
H        -4.76217689508078       0.11437241817386      -1.19440988731257
H        -3.70291579047598       1.06901812632147      -2.24652084341867
H        -3.41220893646575      -0.66438768314744      -2.03783703399323
H         0.78141639715512       3.26294510898936      -0.18012399058464
H         1.15272540469224      -0.86686550138620      -0.12158262817866
H         3.05892229203141       3.52883669527361      -1.13547741117684
H         3.43535776842219      -0.75055226939103      -1.10622005488385
H         4.41410482319279       1.49126214132079      -1.63298703712680
P         1.42817573087833       2.97988534516360      -4.65661436824951
F         2.11413669764994       4.46272159750283      -4.98006026356198
F         2.66371148716796       2.66849250156098      -3.52403124028933
F         0.15603108255017       3.22146090424751      -5.72101060837546
C         0.42825313694133       3.99237684609570      -3.27981082936500
C         2.49337713384122       2.29798480736379      -6.15160652520677
C         0.71290421457321       1.16120315442149      -4.13483370732795
C        -0.54437120602965       5.10894047438093      -3.75531027489650
C         3.96531962957833       1.89569927293582      -5.86833665994914
C        -0.70459361143626       0.70977445355126      -4.56075453679371
F         1.32171246873167       4.58958244203439      -2.45861940460408
F        -0.33862171359741       3.21774104848316      -2.46584286439889
F         2.54377274550938       3.25327185033963      -7.09299353117277
F         1.88106725015350       1.24087427872847      -6.71524397238579
F         0.71635160038798       1.06276143479484      -2.77235278550790
F         1.56713864484592       0.20321539090905      -4.54113180144899
F        -0.91353595013485       5.83980069387244      -2.69346972635995
F        -1.64616942573807       4.57509370449354      -4.27320670582607
F        -0.00942479968662       5.92928218495059      -4.64427377605377
F         4.55991430450026       1.47067021893307      -6.98293604516821
F         4.65568134872331       2.93536068092774      -5.40617927179868
F         4.05115346174362       0.91374068607178      -4.96754916252699
F        -1.61958054356531       1.59993414916449      -4.17160243070115
F        -1.01326271882932      -0.45379512107609      -3.96475878021924
F        -0.80665183892344       0.54004485695123      -5.86784205283506
