37
C9H13F6N3O4S2 optimized with DFTB in AMS.
N         2.21216345834811       0.77558184618901      -0.94925220306846
N         1.14943645800651      -0.94301949458220      -0.21499735126370
C         2.18881757286514      -0.55369832783401      -0.94958490431913
C         3.27018789244564       1.59499432650550      -1.53508095208362
C         0.84260000315058      -2.32498848954642       0.14131958599619
C         1.18262484250924       1.24613689046978      -0.17970492100123
C         0.50926858580631       0.16094834640450       0.28324660520042
C         4.33831006603911       1.86325148902043      -0.48154301788384
C         1.31656450296792      -2.60129488514276       1.56423840006366
H         2.88527369247005      -1.19693293604299      -1.46171468752167
H         3.69000813702462       1.04256911421187      -2.37798793602161
H         2.82116669011390       2.52472943301654      -1.89464825691700
H        -0.23738091354663      -2.47152402891937       0.04887716889628
H         1.35715864399821      -2.97181183610054      -0.57224515936779
H         1.01065483467878       2.29798715944192      -0.03239517411499
H        -0.36126693468927       0.08487093449548       0.91085831693810
H         3.92133106915218       2.42780588972947       0.35198194084942
H         5.14867426932642       2.43430859365086      -0.93094223327246
H         4.73293896449620       0.91940295276958      -0.10796866863319
H         2.37852365653199      -2.37876969122629       1.65295765106686
H         1.15294589620790      -3.65206967110706       1.79698043761955
H         0.76603755522027      -1.98736407689696       2.27630053881360
N         6.49878484314060      -1.92468391775695      -0.46071215488956
S         5.29266251541371      -2.26867038421991       0.51492001640870
S         6.15913700116807      -1.49794735894717      -1.97141763438803
C         4.44903702307774      -3.80954958192641      -0.14963037878932
C         7.34943598692903      -0.08274256544830      -2.16537696932472
O         5.84684957460609      -2.66494049237048       1.77734560244679
O         4.19734282684635      -1.30368088893918       0.54550106355824
O         4.84880724393846      -0.90075801388535      -2.19595102155896
O         6.59117902538392      -2.49485898612443      -2.91419708973325
F         3.77598292868802      -4.40387015809895       0.83081119124631
F         5.30491080857334      -4.66582338897870      -0.66475100754103
F         3.56398881113022      -3.46413394411587      -1.09041645167851
F         7.09691413196568       0.54994410065922      -3.30185680926828
F         8.60034069203066      -0.49989794297112      -2.17143008085574
F         7.18720849738488       0.77672120161726      -1.16424740220803
