23
C7H10BF4N optimized with ADF in AMS.
N         1.21707300329035      -0.24408867852163       0.33275954413469
C         2.49668039275767      -0.59412459825206       1.00538575611887
C         1.04877064066271      -0.51877495227600      -0.97519992433734
C         0.22920644364142       0.32751635301843       1.05928415920985
C         2.34615481002725      -1.89858903128222       1.77118386587142
C        -0.17835674251408      -0.29250830747343      -1.58289369081804
C        -0.99608869685031       0.59621085955143       0.49144907603870
C        -1.21168190993315       0.26496361686325      -0.84901391768647
H         3.25693827499428      -0.63477557761643       0.21302112650159
H         2.75734240857839       0.26040994816960       1.64392643157389
H         1.92916621074046      -0.87989165114774      -1.50462625181849
H         0.46939174570143       0.55300832223993       2.09622793376013
H         1.58865486917850      -1.82221648631765       2.56686324352504
H         3.30896117698321      -2.14880986415638       2.23927980002836
H         2.06576598966063      -2.72337015119435       1.09831301713783
H        -0.28562953337801      -0.51851777462053      -2.64351526096769
H        -1.77306826085813       1.06582073361422       1.09444663064830
H        -2.17777844957420       0.46433834859787      -1.31592509778524
B         3.29626931916866       1.64048407358346      -1.47228325201465
F         4.12327010918975       2.50251440090640      -2.18396843099678
F         3.76152851806691       0.26765939755657      -1.61202012519230
F         1.94857925665554       1.68311044255827      -1.97049883576210
F         3.26624083061075       1.95333403109901      -0.08067281826956
