37
C11H20F3NO2 optimized with DFTB in AMS.
C         2.75691684791466       0.40716389149223       1.61194107774173
C         1.82273213593595       1.37355027370136       0.88182495972393
H         1.27014940925843      -0.81045089568490      -0.59421225072880
H         0.14011282332945      -1.45037948625001       0.63971256974432
H         2.88686037287349      -1.66124971327348       0.90256540863230
H         1.83567990227255      -1.44407861468540       2.31177686389588
H         2.79575875937582       0.63683800280699       2.67846189997052
H         3.76801419917836       0.49292239213917       1.20987799672320
H         1.64938024228159       2.30793729813311       1.41665944059946
H         2.19370180439519       1.59526605607460      -0.12178721025092
H        -1.09289864126177       0.06741884531511       1.96847041339035
C        -0.21627131695026       0.70590277620839       2.02775074672390
H         0.41854435964480       0.33758905249135       2.82815978585018
H        -0.50182981798041       1.74079588149435       2.20825122317129
C        -0.29160036918320       1.21197586863430      -0.37473062695314
H        -0.50846561750995       2.24304787789019      -0.08210683753719
H         0.34574260656870       1.23395798778276      -1.26357465737085
H        -1.91683449694909      -0.09601408296592       0.22523260577308
H        -2.61472814301033      -2.17382198864645      -2.66941172513398
C        -1.48592294925213      -0.53613661883615      -1.83054028440859
H        -1.42587145441924       0.01573334295416      -2.77508867635008
H        -0.57531255396746      -1.13505567282121      -1.73870693854318
C        -2.69308184284857      -1.47291697199101      -1.83854068866347
H        -3.61807521400728      -0.90516677123707      -1.94462513789530
N         0.52984585478577       0.63183485768892       0.74018777934050
C         0.97129865454389      -0.76987378636882       0.45564342944295
C         2.16579819381470      -0.99218469798290       1.37399859462139
H        -2.73076545536886      -2.03525445450779      -0.90477943680694
C        -1.59177701812887       0.45055403320295      -0.66071595502047
H        -2.36614116121094       1.18922227802966      -0.88810356785813
C        -1.19506946594221      -2.41815937751243       2.41496386774883
O        -1.74062621174395      -1.95328343248471       1.40564039821703
O        -0.21905252729088      -2.00525616084851       3.04262267662625
C        -1.83624580347470      -3.77427614679211       2.96470053651885
F        -1.09156255156414      -4.83568833174027       2.59573561389462
F        -3.07450601890048      -3.98512704218841       2.49590851383298
F        -1.91233394660866      -3.79580673282207       4.30423402023747
