24
C6H9F3N2O3S optimized with ADF in AMS.
N         0.73777147130389      -0.04610309553928      -0.63343356255302
N        -1.28485955921662       0.01361742285783       0.14981156187193
C        -0.36130144799553      -0.77619022768120      -0.41249823913562
C         0.49692690980327       1.25217986958341      -0.24064850806172
C        -0.77335279652573       1.29113363522450       0.25234841950693
C         1.89628565714608      -0.49432066555640      -1.39835338066222
C        -2.67952106416634      -0.36262756893610       0.35168885581138
H        -0.51134307602269      -1.79804012143070      -0.73621627414853
H         1.22745125807912       2.03747857957416      -0.38599438024628
H        -1.36533993568735       2.11454933621835       0.63090407256043
H         1.79001815927269      -1.56595022771388      -1.59474782672507
H         1.87508752939219       0.04180725235957      -2.35741286615816
H         2.81003104867804      -0.29397858867558      -0.82456293708712
H        -3.09602794149892       0.25026444147127       1.15905617291395
H        -3.20340957366317      -0.19655908199011      -0.60148208073586
H        -2.72698890836842      -1.42034340730559       0.63554280790789
S        -1.13477151654317      -0.13783422067234      -3.40237905385027
O        -0.62941883743642      -1.51220693540720      -3.17109448016231
O        -0.10335629759206       0.91641350770250      -3.32052534713733
O        -2.40433568634379       0.17249401370080      -2.71283848632251
C        -1.60071081380209      -0.13156752424546      -5.21818761089019
F        -2.52859752777340      -1.08478502256595      -5.49585706026846
F        -0.50892740900177      -0.36916385625955      -5.99349787959050
F        -2.11575111763781       1.07340606948696      -5.57811479093736
