58
C16H22F18NP optimized with ADF in AMS.
N        -1.70604116505361       0.95503844801570      -0.10338308579850
C        -1.89951850170021      -0.49299388448225       0.28597153946626
C        -2.70957371087120       1.66817766546156       0.78596293126080
C        -0.29793899515543       1.44931454140413       0.18118612168186
C        -3.41000476038963      -0.65889442305033       0.44885861858658
C        -3.93598338643834       0.75585886660984       0.81099400673800
C        -2.07076080413631       1.16380119646513      -1.54245692864695
C         0.78341739476500       0.80329083913825      -0.66369870471647
C         2.15741961422794       1.32434057055713      -0.23061940746825
C         3.29010798178663       0.76220246667360      -1.08550985058384
C         4.65475730476069       1.28162752013557      -0.63995337581567
H        -1.37251281287076      -0.62213496024080       1.24318168012419
H        -1.44151948374648      -1.14272845429923      -0.46934687527727
H        -2.87684551161433       2.67962075556775       0.39936675392463
H        -2.23329928683759       1.74557683793523       1.77424504598056
H        -0.13208780365903       1.25023278854750       1.25201186217497
H        -0.31020757647604       2.53687732036732       0.03534355035518
H        -3.62658216539062      -1.39982092515051       1.23066035928349
H        -3.86918662294510      -1.02567203123931      -0.48081276384391
H        -4.69716075320149       1.09112485992009       0.09149884342629
H        -4.40099092724057       0.78264146786538       1.80632211826868
H        -1.42929704316041       0.53000569312860      -2.16466207761647
H        -3.12096602803521       0.88629701568209      -1.68582958793927
H        -1.91675982002764       2.21985861141071      -1.78817414255329
H         0.75990217964484      -0.29724325525326      -0.56637385568350
H         0.64016789865278       1.05683533862676      -1.72628111235233
H         2.33321421303837       1.06699358235385       0.83081341595652
H         2.16028304942272       2.42410377356888      -0.29479560358755
H         3.11384030595809       1.04123152242328      -2.14041877752096
H         3.27476950592518      -0.34341705729569      -1.04300785396025
H         4.69691728906277       2.37851983980121      -0.71486881005547
H         5.46480216037398       0.86557841635430      -1.25730246195396
H         4.85487579311093       1.01061483713454       0.40943482603651
P         0.38889985336421       5.81391244951913      -0.54594749865715
F         0.31352643092852       6.49530693786356       0.96621277955248
F         0.97304943261715       4.38413919069325       0.14152573915479
F        -0.21378900687495       7.16174781343672      -1.30997976931105
C        -1.48886697913148       5.27259704567554      -0.11443343778257
C         2.18190476092355       6.64599291434172      -0.68512193792146
C         0.53003573403806       4.80659782173501      -2.28825768836340
C        -2.55162679551181       6.40049364039152       0.10636983657959
C         3.39570828311840       5.95436128573493      -0.00150577043443
C        -0.06535247296252       5.41363275879959      -3.58768313000129
F        -1.47844983512333       4.54370577963557       1.06706420126791
F        -2.12225136955296       4.44233574601420      -1.04407869309881
F         2.10913530583705       7.88834314843035      -0.09647849529805
F         2.54760317549617       6.87598382928822      -1.99253813027765
F        -0.07394284687224       3.54966245915646      -2.17407341737623
F         1.84288219639874       4.51568008078455      -2.56943354503922
F        -3.69718214845799       5.81369725626992       0.59494066303729
F        -2.87862896234227       6.99651944845491      -1.06060813578342
F        -2.17159195863318       7.33584807871433       0.99021192868997
F         3.17368521064843       5.76213393470052       1.31958634475940
F         3.68693348791239       4.75317588233980      -0.56441600392429
F         4.50162124617263       6.73845191890481      -0.12923768719711
F        -1.39438398676141       5.64383107131915      -3.45255873385925
F         0.09241217228906       4.53095795602404      -4.62242693435514
F         0.54737721559987       6.56079410513516      -3.92998952155153
