28
C6H11F2N3O4S2 optimized with DFTB in AMS.
N        -0.64527226148589       0.81633524238843      -0.32478797057098
N         1.50330186298365       0.82453154631137      -0.22007586114938
C        -2.06300094039605       0.79874061796828       0.04145864302565
C         0.39252491698690       0.61104514793492       0.48280134456634
C        -0.18764644348717       1.19511438343471      -1.55694623508517
C         1.16894789047032       1.19933397817025      -1.49225465663959
C        -2.32664760142235      -0.06412206334810       1.26411012651846
C         2.86065226202072       0.76505858374616       0.29774351666682
H        -2.35734207102459       1.83595758814783       0.23146900949170
H        -2.61502843038283       0.42728188293162      -0.82679312686414
H         0.35610805960956       0.35287795535832       1.52682131858530
H        -0.85645131467877       1.43758645085100      -2.36369063591261
H         1.91231722726722       1.43713920825068      -2.23255037967234
H        -1.92110373018233      -1.06674046986273       1.12882114160236
H        -3.40356483346387      -0.13610283462104       1.41057065400340
H        -1.88809390713081       0.38626418638035       2.15300361544695
H         2.84042391842685       0.32249906951990       1.29095264835465
H         3.47490695667152       0.16574429263265      -0.37348454948243
H         3.25753611968471       1.77905241198666       0.36173077893916
N         1.29249839377846       3.50212308248096       1.31230500380100
S         2.03819437851754       3.13499744323173       2.66757285551609
S        -0.29186973339923       3.57776652806357       1.36968442950479
F         1.62604544306304       1.54073601063844       2.87727386042462
F        -0.62384000057298       4.97384380606748       2.09014794015900
O         3.43274148157234       3.05945373605025       2.37103427074174
O         1.59774843180310       3.76194450884449       3.86366212435878
O        -0.94686448059927       2.58714236197790       2.17906567856688
O        -0.76008850732981       3.73683697266396       0.02441010890296
