38
C10H20F3NO3S optimized with ForceField in AMS.
N         0.25343340747516      -0.12184642969730      -0.20586577778865
C        -0.61506408847169       0.67309515955876      -1.13342871930380
C        -0.49893198741054      -1.34450596560257       0.22773381543448
C        -1.98007226178106       1.05341759829029      -0.53844010903489
C        -1.88672482554756      -1.04821716323068       0.83352777975874
C         0.65832880624242       0.67386800472904       1.00508277243444
C         1.45151538380443      -0.55250841409764      -1.00581904453180
C        -2.73788539671078      -0.19825335255702      -0.10641007148027
C         1.47762417853477       1.94560920136155       0.72458515068860
C         2.52963757189276      -1.33611349275232      -0.23434737837258
H        -0.81902484269333       0.08779760544571      -2.06106156783334
H        -0.10414378060564       1.59560790088929      -1.48095267905553
H         0.07277359844460      -1.91244186713287       0.99335062287146
H        -0.65249558097330      -2.03364300409758      -0.63480192291326
H        -2.57584260398907       1.58331721192219      -1.31289560699546
H        -1.86652623258473       1.75491330467343       0.31361085456702
H        -1.79165755696605      -0.54776413178746       1.81948575440715
H        -2.41130573310979      -2.01092145058763       1.01691271402466
H        -0.22437715572922       0.99590815098404       1.59018607284273
H         1.23750298215894       0.04094691496858       1.71156767257501
H         1.13281016455910      -1.19623181526852      -1.85801136101876
H         1.94461864703864       0.32406273092878      -1.48054149409463
H        -3.67839928581605       0.09585933571112       0.40692931803942
H        -3.00877144159888      -0.79685511875081      -1.00401331770090
H         1.73626563300306       2.41864066227727       1.69453637061497
H         2.42949731664520       1.72309416629637       0.20389695948361
H         0.89234829555764       2.69156896049658       0.15149674769892
H         3.33176642281729      -1.63030173208710      -0.94387463112550
H         3.00552444443038      -0.71684558589484       0.55147901739118
H         2.12643141111494      -2.26886778365157       0.20697603535202
S         5.14484098448334       2.50199291732067       2.48813670467306
O         4.42325430301743       1.18129469575143       2.18361443869374
O         5.79712693723310       2.23410116123628       3.85212156732080
O         3.99432147523938       3.45738768900466       2.83637056212476
C         6.27288826477005       3.08878482928854       1.19296529339256
F         5.56289034257822       3.30928870831753       0.02801595273793
F         7.24800712409461       2.13658257616125       0.96476923839623
F         6.86755741175222       4.26804276088251       1.59992805002590
