60
C18H39NO2 optimized with ForceField in AMS.
N         0.00353303236846      -0.00733626043014       0.00454910255646
C         0.86468109982660      -1.01253238119794       0.72439106310622
C        -0.89874587576316       0.65579218994019       1.01241615421051
C        -0.78894640910938      -0.72831560344125      -1.05435843373302
C         0.83701130443064       1.05494117120047      -0.66361132526784
C         1.89617105761502      -0.43053882189522       1.72553068606657
C        -1.98492366806665       1.59952537767920       0.43386918306387
C        -1.83331280770819      -1.75222077821388      -0.53961763014740
C         1.94859463681254       0.54402664246531      -1.61690374562491
C         2.72021577309095      -1.55662398502115       2.36433968134338
C        -2.84433901583609       2.18779453835522       1.56089349784368
C        -2.57718568919253      -2.40112506969757      -1.71438205141452
C         2.75693843647317       1.71888668467176      -2.18314503333078
C         3.72936554238979      -1.00547241550001       3.36778116539748
C        -3.90050026676182       3.14281675060605       1.01150011612575
C        -3.57622621252361      -3.44665238181712      -1.22681252733159
C         3.83961289968979       1.23392491642143      -3.14345892919140
H         1.40654983807017      -1.65630090356464      -0.00381931819475
H         0.22825183838840      -1.70908815050103       1.31164807689294
H        -0.29725513142367       1.27268651686240       1.71438788093441
H        -1.40054994906716      -0.10633632566683       1.64937111494283
H        -0.10496396337612      -1.29711202944410      -1.72036669783829
H        -1.30653511079093      -0.00132577510797      -1.71913807055631
H         1.30193475142946       1.72208466477718       0.09610638611771
H         0.19027007305176       1.71814702716975      -1.27736611357588
H         1.37858264083833       0.11838328008004       2.53837759214886
H         2.59854220167987       0.26227238728170       1.22002322705595
H        -2.65715977767706       1.05726903674348      -0.26122365364035
H        -1.51403079086709       2.44283096394079      -0.11091128776468
H        -2.58387480618207      -1.26356358148658       0.11388281101038
H        -1.33315878953239      -2.55900115374739       0.03363516376127
H         1.50083704385314      -0.00447450932132      -2.47067721881921
H         2.65135050839644      -0.13180689694153      -1.08987763886051
H         3.26841741403802      -2.11458560796539       1.57395976013833
H         2.04396048746711      -2.26557930704999       2.89034421560070
H        -2.19838018523344       2.74293021176187       2.27597415770371
H        -3.35377386355463       1.36691138058272       2.11138209284033
H        -1.84924184388718      -2.89443608363541      -2.39512104016084
H        -3.12240990736298      -1.62124106164331      -2.28930587968761
H         3.23902286357669       2.27773260568472      -1.35142331112289
H         2.08029267622623       2.41312515359448      -2.72792516920170
H         3.20565096919367      -0.46391006668365       4.18428071197320
H         4.43743021739848      -0.31415086319266       2.86310110133536
H         4.30702738895271      -1.84352031024979       3.81167896130484
H        -4.57777593875076       2.60843949107245       0.31158413227667
H        -3.41586810852810       3.98946945082117       0.47978470094478
H        -4.50465627741805       3.55024076035535       1.84937245830763
H        -4.31520512417366      -2.98440351840565      -0.53895027118232
H        -3.04698002249568      -4.26681016048634      -0.69631849675048
H        -4.11826989534035      -3.87656877715739      -2.09533409227274
H         3.38248118950770       0.69177400834280      -3.99870003795113
H         4.54806637914333       0.55908024989054      -2.61737569702359
H         4.40472602586426       2.10493826994842      -3.53703836362304
C        -7.43782426323209      -0.16987313984432      -2.61206019093562
C        -6.55314249268697      -0.83487071740753      -1.60499319145574
O        -5.49648416324778      -0.31531706226935      -1.28434495011405
O        -6.88473272481611      -1.89552416975295      -1.10038574171015
H        -7.71644251213187       0.84311073288035      -2.25316018938443
H        -6.90050987986329      -0.07929151269164      -3.57924535254823
H        -8.36526887897186      -0.76092230389881      -2.77116585508781
