56
C16H34BF4N optimized with DFTB in AMS.
N         0.27494253776761       2.08057721049950       0.11437800808754
C        -0.46991202905242       3.01446353836733      -0.78703541040749
C         0.96868464440835       3.00839887525170       1.06714366801443
C        -0.66480044168491       1.19036402761813       0.87130604338556
C         1.27239766316917       1.30148635058169      -0.69994376588274
C         0.44815518163432       4.22058451690374      -0.97935948676577
C         1.40325000455905       4.20115579645159       0.22554295337399
C        -1.47843369178156       0.24767265409032      -0.00788487949998
C         2.07929240482376       0.26875836436586       0.08336784387379
C        -2.36693258818217      -0.61846822780011       0.89402859420477
C         3.03539748471955      -0.45446483041397      -0.87054932983939
C        -3.18471204533238      -1.61634301144823       0.06996980476672
C         3.85184267033539      -1.50635345753958      -0.11383170963607
C        -4.06415820657375      -2.48732525832159       0.97275355386423
C         4.80987567663703      -2.24697306074179      -1.05160143495262
C        -4.88216567615902      -3.48691704344853       0.15701166879953
C         5.62170121579890      -3.29854328663597      -0.29699124816999
H        -0.72241590651205       2.51102048280952      -1.72044395377490
H        -1.38979005723507       3.30347067991114      -0.27357966052206
H         0.23891256958877       3.29926022868841       1.82418734549094
H         1.78981645557694       2.49092358806607       1.56130475940113
H        -0.06754749752016       0.62290153578702       1.58602592478855
H        -1.32953262411843       1.84642307999265       1.43792324272865
H         0.71558343845599       0.81175814906780      -1.50356406264813
H         1.94623061851247       2.03210110215538      -1.15417042884383
H         1.00174779234943       4.14128623015474      -1.91735129600139
H        -0.14210013395132       5.13788185498139      -1.01127646458963
H         1.32973206798137       5.11956777868271       0.81004357359775
H         2.43848565386822       4.09397529589396      -0.10506720850452
H        -2.10151444530688       0.81061664067056      -0.71047409291654
H        -0.81930127297407      -0.40491642246463      -0.58659379507625
H         2.65306005080972       0.75084698922773       0.87704249584735
H         1.41940514861520      -0.46342512480431       0.55172050055559
H        -1.73464565868390      -1.15871376230125       1.60525653957474
H        -3.04124065479239       0.02603501607759       1.46725521219599
H         3.71092350185614       0.27128309247963      -1.33745232830077
H         2.46141399618480      -0.93865187535029      -1.66943009027798
H        -3.81549522651907      -1.07266867766175      -0.64245768879254
H        -2.50618108467260      -2.25545531604433      -0.50570053949544
H         4.42265973251799      -1.01767018393001       0.68198343582013
H         3.17108783318753      -2.22334485131049       0.35605617374761
H        -4.74063640374694      -1.84687696279021       1.54855558026078
H        -3.43071828273955      -3.02870813563664       1.68289687929267
H         4.23739296057477      -2.73254839023952      -1.84980259752307
H         5.49113937133922      -1.52782493780191      -1.51961412003139
H        -5.53633924403690      -2.96551447338861      -0.54340832249263
H        -5.49775004548439      -4.09491926371590       0.82013958620368
H        -4.22430729991957      -4.14778498402613      -0.40919077516758
H         4.96032962359154      -4.03647435755931       0.15882081707304
H         6.29727354446860      -3.81261845656402      -0.98121077018896
H         6.21373738181455      -2.83060089134447       0.49045962064309
B         1.43251928460063       0.76524397752837       3.57154524778905
F         1.03817015896345      -0.37227705087123       2.82422041423328
F         2.58348888393028       1.30689213999411       2.94535572853401
F         1.66419713419803       0.45989164530377       4.87938280212042
F         0.39483594444079       1.73098833645236       3.43467763383262
