37
C11H24ClN optimized with DFTB in AMS.
N        -0.41238764791248       0.07376409163957      -0.12207855744885
C        -1.32948519381817       0.55894927951782      -1.21168446687034
C        -0.88700719637442      -1.27212132105700       0.33928231519779
C         0.94953647158200      -0.07666867733714      -0.75643176492306
C        -0.37521112914030       1.01503614430059       1.05199205061531
C        -2.78387493887884       0.62506172579711      -0.77642626704014
C        -2.34509792464640      -1.27686172288923       0.79014629195964
C        -3.26800986979547      -0.74562845284742      -0.30639403809115
C         2.07822275114500      -0.45130658744952       0.19677426993085
C         0.14574215395784       2.41140595084615       0.75394434441099
C         3.37075522976030      -0.61066450983253      -0.61603382305527
C         4.55151784720430      -0.95287131611221       0.28898156268123
H        -1.22371738987336      -0.14773256651486      -2.03916247379773
H        -0.95672576053538       1.53297801879844      -1.54760821291256
H        -0.24043521842284      -1.59449274892132       1.15802355378966
H        -0.75909599355860      -1.95847314865688      -0.50225445519288
H         1.16803979687548       0.87667803588567      -1.25559138123396
H         0.84456443310162      -0.84593571402988      -1.52595957174142
H        -1.39252287509115       1.08573003576529       1.44071859603261
H         0.24179902093561       0.53564828952349       1.81637312080925
H        -3.36797644833058       0.94671236073182      -1.64227328272986
H        -2.92492476920568       1.36944914509878       0.01138458897439
H        -2.46650190633249      -0.68805575072525       1.70329001247744
H        -2.60807350246381      -2.31122377704109       1.02830260213741
H        -4.28843871614054      -0.67391816365041       0.07737815583655
H        -3.26968264079801      -1.44255332320575      -1.15081982906696
H         1.86113610543602      -1.38730888703899       0.72173321313268
H         2.22885305516929       0.33092961126377       0.94500376055264
H         0.13434140854074       2.96821978595330       1.69135494517051
H         1.16261152304465       2.39699836259717       0.37091715786383
H        -0.48176253099270       2.92902697294329       0.03297377607135
H         3.57526250871956       0.32234927832316      -1.14962960536417
H         3.23670380711208      -1.40270635459332      -1.35973725927003
H         4.37042880526684      -1.88891722097226       0.81963518927254
H         4.71287906403921      -0.16236269232165       1.02292461312248
H         5.45632365099418      -1.06132381578904      -0.30870820810029
Cl        0.74849807422647       2.69531078180034      -2.37777006710045
