43
C13H28ClN optimized with ADF in AMS.
N        -0.72602671546438       0.43357384317545      -0.15509724851280
C        -1.72151551381141       0.26961741193262      -1.28270159615627
C        -1.27515064910600       1.42443634312285       0.86679686485138
C         0.54061460441540       1.00904269368639      -0.76210835886260
C        -0.44451684600637      -0.88665979697590       0.54537231677514
C        -3.10610101227889      -0.13837220789079      -0.80630358450502
C        -2.65638376175708       1.03823546744449       1.36144080733820
C        -3.65230602196750       0.85512953305114       0.21885131814313
C         1.70207809483432       1.20332005083048       0.19098862346487
C         0.26686452727625      -1.92746532160789      -0.29626186146543
C         2.90608665158085       1.77576379477732      -0.55617192123232
C         0.44681380694731      -3.20394213891257       0.53092372254987
C         4.08791054929432       2.00290426704462       0.38355132222627
C         1.18206181575478      -4.29301180514797      -0.24290268116420
H        -1.29705310490248      -0.45876006761808      -1.98776710951568
H        -1.76724553444117       1.24904072219574      -1.78682667070823
H        -1.29902824391789       2.39747735443418       0.34721180940641
H        -0.55569869950246       1.42466163470353       1.71977238043205
H         0.23771524552018       1.97275761078019      -1.20439760955845
H         0.81535697076648       0.33554346681352      -1.58961978869108
H        -1.41748121762091      -1.27332972810693       0.87114037924618
H         0.11639192067743      -0.61617077349234       1.47401736324747
H        -3.07753529473659      -1.15475217838783      -0.37873334968176
H        -3.75729210832509      -0.19286125603056      -1.69505355710899
H        -2.98009751824017       1.83867713655992       2.04726969833312
H        -2.58264669699808       0.13156923185667       1.98440365275570
H        -3.82105172116418       1.82848636823522      -0.27820581200779
H        -4.62917875544409       0.51403652192347       0.59741801888276
H         1.97913060251662       0.25616395354167       0.67877968502191
H         1.42307228712053       1.86024240271722       1.02962058111905
H         1.26403211709924      -1.57175098092437      -0.60516317129012
H        -0.29278985857856      -2.17617903196345      -1.21724185001702
H         2.62649660562242       2.73040672087871      -1.03941226026278
H         3.20261895755591       1.08795719628379      -1.37048593418878
H        -0.54445015556612      -3.57395089032295       0.84809359416062
H         0.99377512336786      -2.95094846794498       1.45518034497059
H         4.39204865013168       1.05924147171240       0.86143651085061
H         3.81440716807021       2.70051680344699       1.18970289011329
H         4.95487360813087       2.41463164558973      -0.15359692510996
H         2.18510315649798      -3.95179025829911      -0.54469832630898
H         0.63194689505869      -4.57102410139859      -1.15637635377260
H         1.30552487216374      -5.20094649526273       0.36596232416021
Cl        0.70245821612634       0.47534137514873       3.32048938727204
