28
C8H14F3NO2 optimized with ADF in AMS.
N         0.33977029301176      -0.01100494495316      -0.35444777647905
C        -0.48415572388807       1.27939457516645      -0.60717744190591
C        -0.61557402272180      -0.96928048952334       0.36933800619577
C        -1.76618856783656       1.10071843251883       0.19008722396032
C        -2.00096323493386      -0.40993333759605       0.10676883798986
C         1.52600736483178       0.28248260058394       0.49828284768224
C         0.79546710210358      -0.61528790760553      -1.64995291125296
H        -0.69208225125877       1.31921135856542      -1.69705555027938
H         0.13839863731053       2.13309872732060      -0.30696498842798
H        -0.36373007220737      -0.91683561495747       1.43972698753209
H        -0.43368023890904      -1.98669560103291      -0.00211813263811
H        -2.57900744682056       1.65947970788644      -0.29666680330611
H        -1.65383876727749       1.42896868319324       1.23909840506971
H        -2.72842260626673      -0.78606577683938       0.84112325926309
H        -2.36221278608779      -0.65694687630657      -0.90461338001552
H         2.21655974264235       0.92190437970705      -0.06721978756517
H         1.19023495965740       0.79921819415042       1.40623464664458
H         2.02074693294151      -0.66256197836100       0.76145028161120
H        -0.07928029213797      -0.93436755829013      -2.22525424595635
H         1.31492511313688       0.15398228783064      -2.23430382328382
H         1.45798779038361      -1.46072167410280      -1.41854389673582
C        -2.06989106124734       0.33926898369892      -3.40855281477770
O        -0.91576812437767       0.80840668851276      -3.59580530166612
O        -2.98244261160584       0.69203307256029      -2.63021757341692
C        -2.34391795873271      -1.00485420517718      -4.16832799051560
F        -1.92519678695061      -2.05044043200916      -3.33577238615139
F        -1.65126342726051      -1.15305107156862      -5.33147373584215
F        -3.65247546349869      -1.24100464377169      -4.44503944973281
