17
C5H9ClN2 optimized with ForceField in AMS.
N         1.10458864600393      -0.00090841124922      -0.12036644624101
N        -1.10972028713771       0.01037203562703       0.05168631212684
C        -0.00647017870862      -0.75756508747271      -0.03437368534487
C         0.69182706947780       1.28153635524697      -0.08635915453022
C        -0.68363878634376       1.28853971088964       0.02082393564385
C         2.48040751422886      -0.46643606983044      -0.22665660006977
C        -2.49071164078131      -0.44054447372923       0.15503887133393
H        -0.01188446907381      -1.84142273959056      -0.03422893282194
H         1.34013065936022       2.14693288728167      -0.13134141307844
H        -1.32254759141980       2.16056870953561       0.07360566049714
H         2.51702053124797      -1.57674811141906      -0.21533078266726
H         2.92464745507871      -0.09933086311189      -1.17546470868236
H         3.07227228473154      -0.07887080068964       0.62872190971081
H        -2.93750085177618      -0.05804755878736       1.09643984979095
H        -3.07253099892669      -0.05766788714871      -0.70936651448128
H        -2.53928765008036      -1.55040594788244       0.15799357063272
Cl        1.55847772241922       0.39240906043033       3.45956314528090
