37
C11H24ClN optimized with DFTB in AMS.
N         1.89775936213166       0.30038350734566      -0.13215736101629
C         2.12130230523946      -1.07785602151003       0.41158590983253
C         2.94506470794247       0.42358142225745      -1.19938197242470
C         0.53766276360812       0.46193282440512      -0.74565017216791
C         3.63531085938620      -1.26255562213029       0.41906821205388
C         4.17164491813544      -0.29813744167072      -0.65095813575737
C         2.12384568295714       1.32175194954220       0.92053477469244
C        -0.61286414081166       0.20615458651313       0.22186784124045
C        -1.93561569662524       0.25633577324264      -0.55324588396483
C        -3.12510108241537      -0.02884698174550       0.36766242594378
C        -4.44720423528695       0.03047801712928      -0.40384825438312
C        -5.63764737825480      -0.25937103286131       0.50852592126449
H         1.65565352854837      -1.77165814338976      -0.29677740416425
H         1.66696972337607      -1.16527771682247       1.39835709757682
H         3.11221198140163       1.47752760787789      -1.42402235090440
H         2.56065578371068      -0.10276271756752      -2.07898200218523
H         0.49262907326125      -0.25701891576654      -1.57223154281199
H         0.49026100357178       1.47812957893914      -1.14628786507478
H         3.88033995886792      -2.29858735410552       0.17958956792096
H         4.05913866223907      -1.02853392183212       1.39887155339284
H         4.88918089644974       0.40435934374330      -0.22080653163714
H         4.66744932280502      -0.83912753162268      -1.45850101546207
H         1.43442993166701       1.15055366029474       1.74454160740619
H         3.14716792155882       1.24574299153521       1.28124049269365
H         1.95552622596691       2.31029651311004       0.49633451151762
H        -0.50475417128341      -0.78049959447951       0.67960922152415
H        -0.62944485481038       0.95422235652672       1.02117089354566
H        -1.90815598209628      -0.48413714156530      -1.35815609498656
H        -2.05190926255419       1.24468443438318      -1.01075360960217
H        -3.14205327877726       0.70477825229074       1.18163943797646
H        -3.00770027821981      -1.02146601182858       0.81551011328023
H        -4.56360154048456       1.02385195353267      -0.85041874964398
H        -4.42532087406628      -0.70166856158038      -1.21762790420663
H        -5.68943573705458       0.47344290932604       1.31524481592486
H        -6.56538583904213      -0.21375707269140      -0.06216202547862
H        -5.54893962462175      -1.25368209646316       0.94838361653964
Cl        1.42779963527985      -2.06414082586237      -2.54325042195461
