53
C15H29F6N2P optimized with ForceField in AMS.
N         3.07412492875990       0.93295444712564       0.00095488897279
N         2.93083326753508      -1.28182970141117       0.15822048301640
C         1.46320139225950       2.78876869315346      -0.24479813866713
C         2.83001603812346       2.34347891359010       0.29814488138578
C         1.03282934674151      -2.64075560741254       0.97999933986065
C         2.53342203080391      -2.60019342653476       0.65145216881141
C         0.30419323331874       2.09627332184430       0.48859223174334
C         0.16006045991660      -2.29218612305867      -0.23601919352177
C        -1.05583046484474       2.54307041784821      -0.05755306937748
C        -1.32900218802124      -2.29111665877444       0.12979729390363
C         2.82940549547088      -0.11065020242111       0.81737022010030
C         3.35139074562984       0.40405855940138      -1.20815230629040
C         3.26976558704104      -0.96944590693149      -1.10878340388146
C        -2.19585183318348       1.85217623357746       0.70142217186334
C        -2.17993584785212      -1.79159275615764      -1.04519855866018
C        -3.55133157541464       2.16118410351115       0.07495307099009
C        -3.65837523887312      -1.72982757760246      -0.67376708939294
H         1.37237507156675       3.88908101323308      -0.11407259966699
H         1.40807580890727       2.56801991180440      -1.33332943721280
H         0.82112753799177      -1.93211028223737       1.81032871756004
H         0.77788973883699      -3.66397470430603       1.33008127905289
H         3.63023074238854       2.95929606843045      -0.16648875124666
H         2.87231065677400       2.51479392822522       1.39638823681552
H         3.11584275064886      -2.83724062669572       1.56762795808806
H         2.76500443250255      -3.37869738152852      -0.10844923780631
H         0.36275700319120       2.33030529746042       1.57421786438354
H         0.38710269692543       0.99667961549757       0.36072570627375
H         0.34229711768099      -3.03115235823857      -1.04675027983252
H         0.43388060674343      -1.28416382731272      -0.61402899482923
H        -1.15799710352906       3.64538465210061       0.05017702353403
H        -1.11669441686644       2.28383138188033      -1.13768356346197
H        -1.49237543454437      -1.62895215951392       1.00822594493072
H        -1.64176904483209      -3.32236726015094       0.40497273709610
H         2.49256046400262      -0.01551309059335       1.84226991205993
H         3.53233035927701       0.97582351594524      -2.10904394979343
H         3.37119560393095      -1.68147796203410      -1.91781997814710
H        -2.04348840853926       0.75307667200002       0.69082030717670
H        -2.19957112592132       2.19166406485738       1.76012019611977
H        -2.05404160151681      -2.47244715185490      -1.91498352915805
H        -1.84664927174298      -0.77425905691024      -1.34619372721833
H        -3.74904218738109       3.25371412856531       0.10190929330759
H        -3.57940584684378       1.80569712939382      -0.97725672002892
H        -4.34904250633338       1.63954944439228       0.64480933296707
H        -4.24002387579666      -1.33732876918440      -1.53455154429308
H        -3.81263361645776      -1.05396438499576       0.19383212489895
H        -4.03504826184342      -2.74348919734770      -0.42068607341373
P        -0.56520692053336      -4.12498432590019       5.30274174424673
F        -1.42288072038387      -2.65536913541565       5.53320843381538
F        -0.51036622577482      -3.77921361481014       3.62309049962416
F         0.90718434869430      -3.28576404184972       5.58008948982538
F         0.38403108089527      -5.53884408638962       5.08116835701017
F        -0.76620208438837      -4.46733280331932       6.97338877213619
F        -1.99935019804018      -5.01941004614468       4.99979278723008
