40
C12H22F3NO2 optimized with ForceField in AMS.
N        -0.51296612276896       0.00247123026500       0.00334023863143
C        -1.43289458214391      -0.56765601634179      -1.02909938071640
C        -1.41349649112226       0.59397875110808       1.04079836831993
C        -2.84107794403266      -0.09083926705657      -0.73015771492574
C        -2.83306299644401       0.14569397868473       0.75316547381591
C         0.33094826786260       1.07431191097962      -0.61816820557108
C         0.31034785877111      -1.08821569173926       0.62042460791167
C         1.34668901271731       1.73140902305030       0.34708923616573
C         1.30770320220991      -1.76686057845674      -0.34950633121783
C         2.02887655363383       2.92586110452629      -0.31309293483322
C         1.98234366399607      -2.96517696395914       0.31234766317961
H        -1.15442212010259      -0.28635784177204      -2.07042340197184
H        -1.45768733765173      -1.68127500880155      -1.00367772149286
H        -1.13304703567895       0.31028572515812       2.08088566914262
H        -1.41593423936406       1.70790649061470       1.01192175200730
H        -3.03799977811950       0.86444012053753      -1.26523722069209
H        -3.60570302721189      -0.84572034812830      -1.01662280688206
H        -3.04491953603987      -0.80528416979816       1.29009265212007
H        -3.57983549215411       0.91608243789976       1.04549033213328
H         0.88984746298655       0.67391720941294      -1.49272130790049
H        -0.32892534886679       1.87182379886358      -1.03292617599821
H         0.88147696884759      -0.70062298297874       1.49279625917062
H        -0.36519264347982      -1.87177103247684       1.03669590765164
H         0.84770654452486       2.08217146170551       1.27412972179177
H         2.13652700501769       1.00597411741314       0.63208158394929
H         2.10492382977663      -1.05578834848299      -0.64936405232284
H         0.79312268460994      -2.11781934145188      -1.26783300509881
H         2.54636834088914       2.60624988382761      -1.24127259708979
H         1.28174751665456       3.70835464402319      -0.56377312451439
H         2.77846569900536       3.35950821978225       0.38181151090036
H         2.55311229612357      -2.63864992442486       1.20758972142194
H         1.22452898339716      -3.71880663890240       0.61474771961301
H         2.68621384728724      -3.43891863850271      -0.40388340229669
C         6.09013021389780       0.03667436725339      -1.89507630211961
O         5.25374054227950      -0.24594078424023      -1.05159551811377
O         7.01511371998291      -0.73060562060321      -2.10800945425987
C         5.98703979560397       1.31546579432301      -2.67243297076032
F         7.13777879932018       2.06074394162103      -2.49284592421594
F         4.90056646838217       2.05788287656565      -2.24643324280103
F         5.83628398520349       1.02755405750200      -4.01630552643129
