53
C15H30F3NO3S optimized with DFTB in AMS.
N         0.99799492022146       0.67433491112532      -0.95163229329749
C         1.79714085075805       1.78706659542521      -0.33607492890120
C         0.69574661294299       1.18983970873658      -2.33055090384635
C         1.81091840389897      -0.58161741476837      -1.05282853742233
C        -0.26067308602592       0.48608001105618      -0.15944202571801
C         1.18225165206093       3.07773757620851      -0.86430364674515
C         0.49393437220702       2.69423118285338      -2.18166206110168
C         2.26504575169806      -1.13726382838534       0.29270280090836
C        -1.13527389994019      -0.68308700957291      -0.60959934218575
C         3.23115271338325      -2.30330684277676       0.04934013683954
C        -2.46487283642510      -0.64843077186986       0.15361003410127
C         3.71889509578803      -2.90004802324884       1.37250250913856
C        -3.36120926978093      -1.82297426546904      -0.25152707472098
C         4.69462240910479      -4.05038199956575       1.13230972270594
C        -4.68743242720556      -1.79441416628909       0.50545790723764
H         2.82185532490787       1.67910993353207      -0.69173589907603
H         1.76969103005371       1.70607667054320       0.75039253280047
H        -0.17262764258984       0.67160408394836      -2.73540458536550
H         1.56692388390247       0.97798620365452      -2.95318844868974
H         2.68444109635492      -0.33544645455746      -1.66142148549177
H         1.21428818993852      -1.31578478066119      -1.59801228051555
H        -0.82258966390158       1.42018695100154      -0.23594985315573
H         0.02881666507111       0.34586828701204       0.88498552931774
H         1.97263058595468       3.80943303406601      -1.03582370217617
H         0.46588571863375       3.49474074519681      -0.15248479509444
H        -0.56712853123838       2.95350306126298      -2.16037693418921
H         0.96213939290489       3.20426347377935      -3.02480794640525
H         1.41084887472424      -1.48430994685165       0.88227367781011
H         2.78114239056150      -0.36140105205249       0.86409350875801
H        -0.63288392522630      -1.63244638452402      -0.40783619554841
H        -1.33473025429321      -0.62690544151315      -1.68272503333999
H         4.08778346337792      -1.94241370830131      -0.52792970955256
H         2.72856030774548      -3.07640254766108      -0.54143865733146
H        -2.98000878723483       0.29540351659841      -0.05459732266712
H        -2.26718457050732      -0.69156232795410       1.23001809673703
H         2.86028531096420      -3.26219413336685       1.94886859210932
H         4.21274672766920      -2.12009727247603       1.96161550553241
H        -2.84171477870988      -2.76424606846517      -0.04356687015542
H        -3.55382845852484      -1.77747857779402      -1.32849623015654
H         5.03143702289251      -4.45840648750360       2.08536463182686
H         4.21424402008625      -4.84701547163862       0.56259793479728
H         5.56503616248678      -3.70187837457683       0.57546296722802
H        -5.30692368795589      -2.63789478997608       0.20133487309926
H        -4.51561977337648      -1.85858084998872       1.58066271381143
H        -5.22853546590067      -0.87122013292802       0.29430939240811
S         4.23913715612466       1.55260905869201      -3.31016679465307
O         5.01429462473649       1.97582375746912      -4.44127923569626
O         3.49732681207137       0.30623866852774      -3.47996689931230
O         3.45556057165665       2.59197521692590      -2.65078838917280
C         5.47084377195360       1.09215140212951      -1.99695990324069
F         6.19433832012018       2.12573275375810      -1.59208908959321
F         6.29021660163793       0.12577622709966      -2.38476288139967
F         4.79024544144245       0.63341215323385      -0.92171452704959
