23
C7H10BF4N optimized with ADF in AMS.
N         0.13879064518525       0.01126521768244      -0.28304530323655
C         1.61809308496037       0.03126277950322      -0.42804781215993
C        -0.53205200213453       1.17271013743476      -0.12841016678686
C        -0.50321329623776      -1.17329560790172      -0.19569977164913
C         2.32274630963815      -0.04906480554779       0.91399486455534
C        -1.90216023363075       1.17631339963390       0.03139547385868
C        -1.87182613155426      -1.22084059409725      -0.03589782576138
C        -2.58433701788608      -0.03292057991407       0.08043582682651
H         1.87485002425448      -0.81423291174670      -1.08450268875668
H         1.86191477812148       0.95924354099688      -0.96699273531813
H         0.06687097378211       2.07964175681956      -0.13419858483792
H         0.11907131672113      -2.06306461347395      -0.25177181768273
H         2.01812590890804       0.78388026941971       1.56252264532982
H         3.40897181686482      -0.01885802715311       0.74191695087696
H         2.05287634124956      -0.97243424965162       1.44433090003237
H        -2.41692270886691       2.12577637468923       0.16645787797885
H        -2.36294679120461      -2.18892805482486       0.04342894586648
H        -3.66265023926661      -0.05076069352347       0.24115065984108
B        -0.60940889946721      -0.00547186720098       3.11836646887194
F        -0.25454620607854      -0.02512609061990       4.46873836802566
F        -0.07485044773918      -1.16974419628340       2.45145450457104
F        -0.04867978853431       1.16717604089968       2.48088657288980
F        -2.01826986288463       0.01478548005943       2.93597635796479
