40
C12H26ClN optimized with ADF in AMS.
N        -0.71975454841403       0.24152490109668      -0.13775463141613
C        -1.30425154218467      -0.46643288332610      -1.34066841352195
C        -1.83895836087448       0.59398691778609       0.83901636431482
C         0.30476531506921      -0.62209789907128       0.58298157705337
C        -0.08949244651206       1.52689262321856      -0.64442153568460
C        -2.12141650258287      -1.69421560119904      -0.97457254909779
C        -2.67562088354323      -0.61376471455824       1.21844642232269
C        -3.24357762818540      -1.33779660785330       0.00032274831041
C         1.55832495138849      -0.93647836140337      -0.20821807801684
C         0.61872652168346       2.37585238166450       0.39378199598604
C         2.48094363659148      -1.81705329702193       0.64034270041961
C         1.19159315790445       3.62553612991367      -0.27099450564828
C         3.77936063818375      -2.15650346247676      -0.08358835649326
H        -0.46903406268096      -0.71176257576193      -2.01190007374817
H        -1.94349458800252       0.27776010332554      -1.84383158272757
H        -2.45055549918360       1.35229503863209       0.32164918751773
H        -1.34029085383198       1.00880676668969       1.74798942353187
H        -0.21245380542065      -1.55248797283889       0.84666254694609
H         0.51300144477907      -0.09344966533560       1.54677026117955
H        -0.91641526033543       2.09249456352859      -1.10633078217881
H         0.60163079958182       1.23145171822506      -1.45048979241968
H        -1.46971123328460      -2.47266898664299      -0.54382689928520
H        -2.52734318328614      -2.11075429396952      -1.91178571621757
H        -3.48245865055820      -0.24302951784055       1.87175165728555
H        -2.07642780626245      -1.29258315136855       1.84812779080322
H        -3.96911971957735      -0.67880044085762      -0.51208347888798
H        -3.78957449371861      -2.24587494024775       0.30202048636049
H         2.10345752698411      -0.01337547718312      -0.46946880164620
H         1.33338690318370      -1.46488371553244      -1.15432776005028
H        -0.06139967917114       2.64767817701178       1.21568517998940
H         1.41990422340388       1.80665440363991       0.88872201192291
H         1.94897473008987      -2.74722418132253       0.91051986047294
H         2.69425718526151      -1.29474952972433       1.58930454226712
H         1.70089758937396       4.24704231123221       0.47943062834709
H         1.92537136856667       3.37002747029776      -1.05307336048542
H         0.40023458531599       4.23770966081622      -0.73339248257112
H         4.34020755555250      -1.24202882685456      -0.33538407864700
H         3.58016502581910      -2.69934669583836      -1.02241163450005
H         4.42911714379171      -2.78812117002326       0.54055367824344
Cl        0.12962757568565       1.01592471277366       3.43229599016958
