60
C18H36F3NO2 optimized with DFTB in AMS.
N         0.53281137547047      -0.26757782965091      -0.10203649845350
C         1.16492233687329      -1.43240131168088       0.61733483272173
C        -0.08289525598156       0.64006077100790       0.92993872411686
C        -0.49129060853384      -0.79210056782692      -1.06872335058897
C         1.55186665091041       0.52378098656242      -0.89072100893984
C         2.27763772441447      -1.05939203286352       1.59477555613141
C        -0.86524377755711       1.82640655883680       0.37438009012468
C        -1.69298755663903      -1.49978079515362      -0.44509948615900
C         2.48761424109868      -0.29748069783134      -1.77170482418466
C         3.03154955436994      -2.32267003137756       2.02510295553333
C        -1.33382692347232       2.69864271637493       1.54684281083293
C        -2.64411786899474      -1.95341187455613      -1.56034046595482
C         3.45692268264862       0.66208987618771      -2.47673943007412
C         4.14928087372414      -1.96748318127354       3.00300883154298
C        -2.11736732659030       3.91035335376153       1.04884273647019
C        -3.86636179333804      -2.66432394987263      -0.98368879131404
C         4.40393620274796      -0.09890669414267      -3.40059393898054
H         1.54307048396092      -2.11190821352168      -0.15007484546682
H         0.36319423028625      -1.94301441341395       1.15626707097094
H         0.73945561576722       1.01468949650954       1.53886628774220
H        -0.72714897352633       0.02416578832635       1.56216594860615
H         0.03077611038685      -1.48262187431651      -1.73551948143012
H        -0.83692360526127       0.05766223357042      -1.66218599902095
H         2.14479159752566       1.09669913328130      -0.17384351081737
H         0.98980640259848       1.22492183897986      -1.51107515136959
H         1.85694335031303      -0.57307899092563       2.47763972405211
H         2.98472743580371      -0.36685346558351       1.13488841033095
H        -1.73250506428766       1.49176256894946      -0.20229982908102
H        -0.22887929983510       2.42938884614721      -0.27661049486273
H        -2.22996699525557      -0.82821378443178       0.22894950394029
H        -1.37394752502801      -2.37353480493111       0.12861551513291
H         1.92662335654728      -0.87291774372061      -2.51554580164954
H         3.07307430509196      -0.99443496691850      -1.16818365569964
H         3.45891601645190      -2.80943228977536       1.14146355969699
H         2.33708527294522      -3.02900956576685       2.49433875010971
H        -0.45942257724871       3.03624235401032       2.11052965035695
H        -1.96200896959336       2.10296534695909       2.21780129871393
H        -2.11309413729777      -2.62917318220369      -2.23875410725071
H        -2.96679013956197      -1.08172974323073      -2.13905681218418
H         4.03416943989806       1.19649106199147      -1.71673810192742
H         2.88904702086925       1.39803940541975      -3.05597267694270
H         3.73592209332847      -1.52099399111407       3.90794031036319
H         4.83776797855285      -1.25510809969583       2.54875107697307
H         4.70323509123273      -2.86511296359062       3.27787914067678
H        -2.99533421151564       3.59572439975047       0.48234848547305
H        -1.49142416941778       4.53013948688179       0.40620632243032
H        -2.44665895809932       4.51069431458768       1.89657404402859
H        -4.41657877517060      -1.99898102626582      -0.31745417285470
H        -3.56462786974201      -3.54870212794900      -0.42143858930498
H        -4.52903240937951      -2.97440697238243      -1.79119206206430
H         3.84605676971030      -0.62506776078081      -4.17751813918712
H         4.98503346869188      -0.82778623032006      -2.83453382538553
H         5.09183513820579       0.59872003081306      -3.87765569013409
C         4.21162845581307       2.34716860686042       1.32417134652808
O         5.17110168108911       2.99305312490469       1.66435791814379
O         4.02670586696540       1.38001928505651       0.58094650493234
C         2.77260867684248       2.83903713893996       1.99116456584527
F         1.82781187573520       3.03646471433296       1.01936285034022
F         2.79442113428309       3.95246525101121       2.72335351132411
F         2.23564669457341       1.86429478475344       2.78414378839693
