64
C18H26F18NP optimized with DFTB in AMS.
N        -2.67671775723079      -0.71905011352128      -0.42416687091339
C        -3.22614264108546      -1.81865822836017      -1.31356224857398
C        -3.87718079913262      -0.04216903949825       0.20264872695175
C        -1.82207189587953      -1.30209794697455       0.66909968856140
C        -4.73112135593715      -1.60842341475479      -1.38489179485888
C        -5.05975261778918      -0.96791860401348      -0.04263136355270
C        -1.90472119473401       0.24835292497482      -1.26986379761416
C        -0.60688418462416      -2.08245857155926       0.17391067058889
C        -1.29917699471541       1.40957204363895      -0.49422767033868
C        -0.04802897402466      -2.91974094456302       1.33241446731861
C         1.14285130115071      -3.76600758919575       0.87706407744841
C         1.61711513903568      -4.68761073898117       2.00499582918169
C         2.79259578949188      -5.55395233891943       1.55702454987525
H        -3.00173274160173      -2.77353069414514      -0.84410834237307
H        -2.73958657895090      -1.77442014301409      -2.28740968771192
H        -4.02827885894519       0.91585180699123      -0.29911491510392
H        -3.68141045186332       0.13290638405304       1.26006740075947
H        -2.47265958713511      -1.95855790113374       1.24530938046219
H        -1.50833278865843      -0.47946198448943       1.31498572088793
H        -5.24297595446466      -2.56223306376619      -1.51761578103700
H        -4.99421916476840      -0.94070137349999      -2.20981528988955
H        -5.99337832836901      -0.40513306452753      -0.06644472711365
H        -5.12409463865927      -1.72588749680368       0.73881532815707
H        -1.11415405434603      -0.31612838298029      -1.76919576666196
H        -2.59776641386911       0.62214891851925      -2.02807692005636
H        -0.88627883938635      -2.75226487231060      -0.64303006763758
H         0.16434242398682      -1.40000908695613      -0.19668381033481
H        -0.88745310247739       2.11492765126893      -1.21564508554773
H        -2.04577469681512       1.92781596120112       0.10487541810128
H        -0.49136837554166       1.07809104508303       0.15554630822245
H        -0.83497268470065      -3.57781334779307       1.71112434729158
H         0.25555694835104      -2.25582229563237       2.14859115855804
H         1.96278903086162      -3.11109440298747       0.56060364242916
H         0.84626901933078      -4.37226189762952       0.01522094532962
H         1.91507145293968      -4.08419831489037       2.86925982645406
H         0.78818000794649      -5.33159905294315       2.31493430004148
H         3.63483299974670      -4.93085926709345       1.25157281098482
H         3.11507884605202      -6.19701716936464       2.37604455084174
H         2.50282844894089      -6.18333529257976       0.71460738094407
P        -4.09278447728305      -5.13959894836171       1.55470640024666
F        -2.48066190749603      -5.25724651306711       2.04040219240290
F        -3.74634931613120      -3.53915747857545       0.99212176360194
F        -4.45262482420183      -6.67624205539197       2.07907499903316
C        -3.50426628283791      -5.87157660886701      -0.16987797788685
C        -4.40416108505890      -4.44968497842515       3.36599808615038
C        -5.94651256282633      -4.78915575280816       0.89297942557211
C        -2.15655424034252      -6.64143468249207      -0.21777551504409
C        -3.92161480198243      -3.01077703584860       3.69260939675956
C        -7.10682591367950      -5.80016695939910       1.09129100815235
F        -3.37561117272289      -4.89922740817024      -1.10849989282766
F        -4.44920522898564      -6.71665835116834      -0.61025852330084
F        -3.76226987689706      -5.25491876979751       4.22727648031457
F        -5.70864292369934      -4.49528619529033       3.68758275881901
F        -5.87699562247298      -4.55349736893830      -0.43866984366552
F        -6.35032798144641      -3.61913862129249       1.44217089348965
F        -2.03682883617403      -7.27741482888378      -1.38584109770395
F        -2.04360770596744      -7.53835378001008       0.74940959949886
F        -1.13188946143933      -5.78506069519910      -0.12949919924872
F        -4.06043858017640      -2.74446164951032       4.98777236964665
F        -2.63093834267571      -2.84065857341318       3.38357305171933
F        -4.61090377916561      -2.08221046864048       3.01691413720994
F        -8.25818262745773      -5.25714872334676       0.68349306060171
F        -7.24651460153379      -6.14336137455865       2.36617442723122
F        -6.90230461167495      -6.90345827469265       0.38085650595605
