42
C10H12F18NP optimized with ForceField in AMS.
N        -0.07640000515267       0.07991894811900       0.12026587616576
C        -1.01117503846326      -1.01444316342172       0.46393484279353
C         0.56566859851728       0.58583380124294       1.35369121080085
C        -0.82148575072804       1.17790120320077      -0.53435211703848
C         0.96220140320154      -0.43021894643728      -0.80162737173896
H        -0.47584837978538      -1.85622626955860       0.95797273161899
H        -1.80414431912053      -0.65835856246828       1.15936169114904
H        -1.50982528484551      -1.41431464779055      -0.44748298236330
H         1.27553311474771       1.41197514484843       1.12393803158872
H        -0.19388316679194       0.97591754065262       2.06787540370592
H         1.13514736401017      -0.22133175125151       1.86696526245043
H        -0.14092541853288       2.01623242127954      -0.80485157685831
H        -1.31596209626558       0.82412661337870      -1.46684107510821
H        -1.61059527871535       1.58152837163914       0.13920308461867
H         1.68225453913856       0.37306207794924      -1.07618024122172
H         1.53712185492289      -1.25886631980440      -0.33181248180582
H         0.50768743172262      -0.81825696117630      -1.74078969731929
P         6.27669089192305      -2.64317114356885      -1.81719251238014
F         5.73966513321514      -2.25362301798150      -0.22536176296045
F         6.92119665706839      -1.22059441068582      -2.54540806946159
F         5.84382391722498      -4.09694945979976      -1.00517880491385
C         8.00137339615238      -2.41718358719642      -0.97301138509902
C         4.59715243249454      -1.71742437649518      -2.07809473280509
C         6.31075959463938      -3.84940725414854      -3.31252791291103
C         8.39215452349972      -3.49398560815280       0.06279783908090
C         4.18441389932115      -1.38154452850011      -3.53385447692299
C         7.35743079364591      -4.97939249639198      -3.30083059905447
F         8.02204238644553      -1.19720985570947      -0.30672554716933
F         9.00334902806081      -2.36614064305927      -1.92929499350184
F         4.62507049658013      -0.50362629972776      -1.39765023712103
F         3.58211717843328      -2.48899974218892      -1.53390238252268
F         6.52422283121370      -3.10698156757109      -4.46028583501978
F         5.07409268963255      -4.46408846925439      -3.42054372650229
F         9.60688620066787      -3.15049326018440       0.62943529038790
F         8.53615394260103      -4.73059666157555      -0.52661547334303
F         7.45879075476553      -3.58366095201481       1.07916933391705
F         3.08857325849607      -0.53689361980472      -3.49842974238756
F         5.18983005958781      -0.73350201799763      -4.22571922009627
F         3.80534713081576      -2.50961331126856      -4.23160282853648
F         8.63790083227111      -4.48737744425488      -3.17033131986584
F         7.29126947633092      -5.65464278450510      -4.50703251627443
F         7.09588743325365      -5.89446830906420      -2.29780869867450
