34
C8H15F2N3O4S2 optimized with ForceField in AMS.
N        -0.69761242260779      -0.87386989924310       0.40600398729770
N         1.49917615814890      -0.53832990000863       0.31834995999221
C        -2.09914658870214      -0.76569457011046       0.80859591004314
C        -2.92562307604532      -0.03482293619832      -0.25711982189955
C         0.35696456615066      -0.25743041978261       0.97533366813442
C        -0.20474449228245      -1.57585264832163      -0.63445167145258
C         2.83315547611110      -0.02375496014846       0.61767102229302
C         1.15784691330439      -1.36559820269160      -0.69037367691153
C        -2.44790894251028       1.40129022973250      -0.46760265269547
C         3.24165449713814       1.02384219631397      -0.41102674506996
H        -2.17982856017499      -0.22181616848786       1.77563847077321
H        -2.51519780878807      -1.78481909059360       0.96107701584783
H        -2.87422514646917      -0.58669953212432      -1.22045469302162
H        -3.98866841788089      -0.01353377275184       0.06602337103702
H         0.29032482485675       0.40345687503671       1.83078726338126
H        -0.79333793260238      -2.18274965385946      -1.31010134258607
H         2.84547334126117       0.44126786750067       1.62763059070051
H         3.56517050369963      -0.85989219172812       0.61349885059390
H         1.84568658173558      -1.77779889784476      -1.41709019029799
H        -1.41165627508849       1.41323938145381      -0.86725074808812
H        -2.47772475167945       1.96267880798154       0.49027065546355
H        -3.11107010927528       1.90948409853253      -1.19863982219941
H         3.22438335758867       0.59101234940215      -1.43341009798132
H         4.27026431290337       1.37689041938058      -0.19159711788099
H         2.54606283189544       1.88912095321968      -0.36758216746488
N         4.93335651796179       3.96222180956105       0.74589879372115
S         6.17370605488797       3.49712298803272       1.70688353703052
S         5.19391805737757       4.47919787248823      -0.78453961426212
F         6.98342903828121       4.85396152651114       2.25963534193862
F         5.82601660976410       3.22734198972247      -1.69913439134407
O         5.63929492093972       2.72605866025017       2.87941901798221
O         7.13423568903267       2.64011087687557       0.93145944570206
O         6.17659920108379       5.61573254416808      -0.77500233355624
O         3.89774535288404       4.93641963403119      -1.38938176642042
