25
C5H9F2N3O4S2 optimized with ForceField in AMS.
N         1.10935095806224       0.01787499773020       0.02446966978646
N        -1.11307858917096       0.00811251224752      -0.01037456161364
C         0.00160130206873      -0.74917595336112       0.00205547452568
C         0.68243706112316       1.29590882520065       0.02635907273891
C        -0.69786855561338       1.28989247104907       0.00208660892308
C         2.49517360053798      -0.43298519053477       0.05246567894784
C        -2.49514192188513      -0.45496127903290      -0.01726023008999
H         0.00633404432772      -1.83226659116459       0.00108255240451
H         1.32603806184605       2.16591538554061       0.03905627499522
H        -1.34911279978460       2.15429458405255      -0.00340050678525
H         2.54601295380914      -1.54189505920793       0.01044998069082
H         3.04299796482491      -0.01494274199113      -0.81732531281355
H         2.98214165836799      -0.08458080211107       0.98707554351985
H        -3.02031807842110      -0.07536446922254       0.88447664686296
H        -3.01133861431324      -0.07844873995272      -0.92519278610827
H        -2.53507464724092      -1.56510316653125      -0.01463086086405
N         3.37323436220632       1.16347509992732      -4.82260719074494
S         4.04253733736114       0.58929672178505      -6.20016762915980
S         2.19045982407279       0.34253833963837      -4.04639048853890
F         2.95559906898247       0.77551557463017      -7.45920895613308
F         2.85174550716441      -1.00187577123041      -3.30038770440540
O         5.29731288452081       1.35623319431208      -6.50737484303357
O         4.36429685737221      -0.87091332328263      -6.04603987903718
O         1.14851266115836      -0.11178736463567      -5.02967470094336
O         1.55873006052288       1.23152856174515      -3.01400156332434
