37
C9H13F6N3O4S2 optimized with DFTB in AMS.
N         2.30474105568216       0.08029000420131      -1.59168433693253
N         1.17617722728961       0.43368337660088       0.20878642953497
C         1.53317264607688      -0.49875157892770      -0.67345899658771
C         2.94310941570938      -0.60842166872998      -2.71407355801154
C         0.38425036086042       0.18989066321147       1.41071477013739
C         2.47729155317259       1.39586214447103      -1.26404815013007
C         1.76928557130935       1.61836181037244      -0.12507010954392
C         3.75827106354226      -1.80068282908680      -2.22777068969304
C         1.29521528922118      -0.17447623319247       2.57755564312062
H         1.23479406659042      -1.53217051188952      -0.65228559012794
H         2.15900564341452      -0.92461118609589      -3.41008203722979
H         3.58687875438535       0.11875230625344      -3.21238070892542
H        -0.18317513917519       1.09924506833558       1.62602286872901
H        -0.31440483566787      -0.62245373655182       1.19040475900848
H         3.09170978065842       2.05601731986414      -1.84940271891246
H         1.66011945627644       2.50278714256383       0.47683676674419
H         4.43720464622070      -1.49882003986449      -1.43216749734244
H         4.34078410981773      -2.19020550790060      -3.06123767447058
H         3.10676931634022      -2.58937222328456      -1.85282237448189
H         1.90662937255997      -1.03866093982366       2.32290606689716
H         0.68364099906203      -0.40893748894880       3.44745177402590
H         1.95404305684734       0.65824536716420       2.81607618857812
N         5.92417814646199       1.09340419922456       0.62285147060588
S         4.63985531274892       0.50332249438566       1.34755441051177
S         6.83996777050848       0.10390094253287      -0.25625564873679
C         5.21223115614924      -0.29124038790420       2.94409151427460
C         6.50029697162791       0.72985293974362      -1.99288483662443
O         3.84763594481596       1.63314335427801       1.79193089531915
O         3.90487990158051      -0.55759544516505       0.67041538244059
O         6.44258783830895      -1.28138955310522      -0.29322621231959
O         8.22110643778888       0.42375163713778      -0.03611314795227
F         5.97503079250767       0.54428539978535       3.62632441307479
F         5.87827660809708      -1.40492891205318       2.71648377704446
F         4.13576243308877      -0.57876075870946       3.67378691357071
F         6.54907074447866      -0.26937593169149      -2.86483560952390
F         7.35767411253614       1.66180059652229      -2.35880440116367
F         5.26503554690692       1.25263173257646      -2.05691139300781
