41
C11H9F18N2P optimized with ForceField in AMS.
N         1.09327626950813      -0.01263369689692       0.01023863531923
N        -1.12845250564680       0.01919136619507       0.01829371728330
C        -0.02850547249875      -0.75823758618173       0.00015465156918
C         0.69124871349977       1.27354399500437       0.03687042848987
C        -0.68917166545303       1.29328726287087       0.04061991771017
C         2.46881670490165      -0.49217487392424      -0.00564771749332
C        -2.51772216371920      -0.42041680013399       0.01385191594010
H        -0.04389785166959      -1.84123305671290      -0.01984414986444
H         1.35066065546477       2.13179589804962       0.05004018018809
H        -1.32355180873496       2.17006390042500       0.05710612462083
H         2.49461611710680      -1.60198110538614      -0.04616978713954
H         2.99579773835975      -0.08738681927363      -0.89508951852674
H         2.98949410141016      -0.15679857563774       0.91393792015874
H        -3.03061514867047      -0.04609717022885       0.92454236174136
H        -3.03212030853178      -0.02305958302810      -0.88616930242030
H        -2.57527833314113      -1.52987196793396      -0.00012528518980
P         3.73279787538413       2.53077552414138       5.42280949667162
F         3.51618287390793       4.23909506060225       5.40131152321343
F         5.28918854417538       2.08707722955483       6.01617865146051
F         2.04766787823808       2.71476039993946       5.12770474804229
C         3.59696443620578       2.89217912472966       7.32322495125749
C         4.63457039922716       3.18277406914051       3.83710455234795
C         3.23148556285962       0.73805952192440       4.90723967035512
C         2.28093603358993       3.53473929865490       7.83496886255733
C         5.43983436062637       2.15702381819863       3.01084721804659
C         2.41141789682903      -0.08630115396912       5.91710779224657
F         4.62100773120680       3.75669585289145       7.69121683937448
F         3.78631273412810       1.72422019261272       8.03589628395348
F         5.54559112039321       4.17324384723127       4.19346022498216
F         3.69459000758448       3.74267103507763       2.98278308519018
F         4.38275030552536       0.00716014548427       4.67669562488587
F         2.51727324955997       0.77723837715740       3.71774191511575
F         2.34408175477205       3.63442104096303       9.21384912484976
F         1.17551900002352       2.77397341637753       7.52155085682187
F         2.10546950511915       4.81115942114215       7.33192546427989
F         6.14001623376771       2.83176755765579       2.02594112147939
F         6.35855917650639       1.48232647477011       3.79262330223826
F         4.61227355913567       1.25412637435064       2.37660717337814
F         3.18013241226948      -0.43234835486639       7.01102963418116
F         2.00872619399497      -1.26111081600162       5.30641191060981
F         1.27869679688443       0.57896865883042       6.33106830407417
