59
C17H34F3NO3S optimized with DFTB in AMS.
N         0.95550015241060       1.34763839239293       0.64029766011435
C         0.62130578025333       2.60902369997012      -0.12195362244830
C         1.79228328460087       1.79530185711965       1.81184197571560
C        -0.29054443264137       0.70236791958915       1.16832752980551
C         1.73754676257246       0.42345778660005      -0.24812728031481
C         0.93787657736343       3.79390544513024       0.79035707626367
C         1.30677344947503       3.19460594982435       2.14640747717907
C        -1.19869953015378       0.09026300650874       0.10231373584121
C         2.20839793782750      -0.85307227319434       0.44345437567241
C        -2.52841769193595      -0.32680963650828       0.74215449373699
C         3.32226816065791      -1.48861058505131      -0.39845410939719
C        -3.45535827512953      -0.97359126634783      -0.29147887265000
C         3.82883544196860      -2.78309763284756       0.24264357515095
C        -4.78507647605541      -1.39343617307123       0.34287047684089
C         4.95748687997961      -3.40183108307860      -0.58771936169157
C        -5.71063879645748      -2.04164665517616      -0.68495985098499
C         5.47502769334428      -4.69049849943961       0.04816513043937
H         1.24160024190809       2.63659221848587      -1.01857237878478
H        -0.42785970669271       2.57845167510777      -0.41503161047562
H         1.67408790001400       1.09121212866546       2.63510999313078
H         2.83430068113790       1.81169895189896       1.49329494650581
H         0.01739585271735      -0.07622088924435       1.87052766990414
H        -0.83032679855755       1.47378575609766       1.72399226458955
H         1.11319064687909       0.19146543101055      -1.11328599522268
H         2.60421051246045       0.98918575926506      -0.59203676910217
H         1.79097489920238       4.34316671181611       0.38699846015968
H         0.08500597373629       4.46993568047014       0.86743750182616
H         0.44318913465467       3.16208702622326       2.81657006370355
H         2.10734723053759       3.76172736067874       2.62276069757116
H        -1.39408394366347       0.80463037208261      -0.70148250545842
H        -0.72326189859623      -0.79036091368188      -0.33696857558232
H         2.60717136445997      -0.62240598311683       1.43411866966059
H         1.37957960148863      -1.55777399741575       0.56578393336131
H        -2.33412853731838      -1.03457660968864       1.55503240875909
H        -3.01704696264852       0.55314675594099       1.17399357258609
H         4.14627445437608      -0.77415070717633      -0.48387785052510
H         2.94529821712369      -1.69710614927169      -1.40525972528230
H        -3.64470670945914      -0.26381634239774      -1.10389161060266
H        -2.96194860422663      -1.85105714886830      -0.72304566938264
H         4.19375507087353      -2.56956656425132       1.25300944732988
H         3.00170048415166      -3.49714828533576       0.32985230463822
H        -5.27624849352510      -0.51397943541051       0.77281867486122
H        -4.59215435341428      -2.10013359221493       1.15706070787445
H         4.59152984901626      -3.61504625726891      -1.59791539579909
H         5.77903634384555      -2.68346864636585      -0.67457587146213
H        -5.92983284179422      -1.34500377117439      -1.49517656744468
H        -6.64903417008322      -2.33065869314465      -0.21169370193963
H        -5.24625421787999      -2.93271659807954      -1.10938669652004
H         4.67475006974954      -5.42831237194276       0.12623887840840
H         6.27713241467614      -5.11107979235496      -0.55864855365606
H         5.86312516660921      -4.49417060641901       1.04877061138044
S         4.34299073553519       2.90093740020585      -0.19115964979220
O         4.64714610611696       1.53462937105269       0.21534718177800
O         4.04816213946987       3.79709272788759       0.91424452874199
O         3.38397518140926       2.97915692877679      -1.28861851355731
C         5.91993093588595       3.53690340709768      -0.91422079830592
F         6.30918312795463       2.76516596459795      -1.92271074632087
F         6.88157956471340       3.54979981636573      -0.00084474771256
F         5.75704405487597       4.77226714387636      -1.37114913941449
