38
C10H20F3NO3S optimized with DFTB in AMS.
N         0.18579048091095      -0.23337455011283      -0.39334339991329
C        -0.60382539552478       0.67792980448795      -1.29617425843153
C        -0.63007876057701      -1.46764495165387      -0.12353355633522
C        -1.96979547206525       1.04180040297730      -0.73091277643249
C        -2.00922839564642      -1.16150136220365       0.44911592764215
C         0.53085222731679       0.42442664246298       0.91034488080171
C         1.42619941271549      -0.62116446599893      -1.16003401725168
C        -2.78981925359161      -0.21822271116786      -0.46391322542483
C         1.45281133963972       1.63074511107933       0.80334714655359
C         2.35055481498977      -1.59133934606609      -0.44511917447341
H        -0.72937623589312       0.14605624034847      -2.24129369024661
H        -0.00219081983513       1.57071535311485      -1.47463512553645
H        -0.06549645723178      -2.09399170568776       0.56946247952552
H        -0.73789149774747      -1.98788209988305      -1.07771253367043
H        -2.47280746615480       1.65697707247632      -1.48143373828243
H        -1.87478047955480       1.64165926521757       0.17990672144350
H        -1.92964324360908      -0.74157321299543       1.45687695272387
H        -2.53784766501024      -2.11509463357395       0.52898529857576
H        -0.40543474666539       0.72968217792491       1.37972909903573
H         0.99143413541465      -0.33827169418557       1.54277142795574
H         1.08254765097592      -1.06779000516184      -2.09568180035029
H         1.95363808023232       0.30370413008682      -1.40083652881528
H        -3.74032053551536       0.04751894625465       0.00429751055380
H        -2.99690336395536      -0.72218227874806      -1.41156062880643
H         1.56415004990962       2.04790439734532       1.80421230030414
H         2.44089363843549       1.35707923725313       0.43859915689183
H         1.03712974633632       2.40236824858373       0.15814594559625
H         3.21747759302220      -1.74197599041569      -1.08824659343196
H         2.69958390788883      -1.20941069161335       0.51334137198138
H         1.87387580966264      -2.55812347253791      -0.29512514503015
S        -0.84981907602790      -1.90376875984068      -4.04770287460131
O        -1.43355017003770      -2.08097979043003      -5.34615611381305
O        -1.78665249519859      -1.86505218978041      -2.92788272920150
O         0.18625536070781      -0.88061979643792      -3.94916907131823
C         0.10137333324137      -3.46120372963712      -3.69835776347920
F         1.12192458389968      -3.62866321383655      -4.52702042820617
F        -0.65982218109341      -4.54423446242304      -3.73703571508058
F         0.61013771453562      -3.36996943972172      -2.44881815345244
