32
C8H18BF4N optimized with DFTB in AMS.
N         0.55139074546130       0.08742024597406      -0.04289695765876
C         0.87451477869542      -0.48015242976764      -1.38999151599110
C         1.76348507340168       0.92127279509342       0.25889671595051
C         2.36609089715786      -0.81210468791554      -1.33587021216345
C         2.94247040065795       0.09429610510650      -0.23661449390884
C         0.41797132537234      -1.00612995108045       0.98372965025225
C        -0.67632265063250       0.94250511414127      -0.11250346284668
C        -0.78145539723279      -1.91818994267995       0.78942676456633
C        -1.05204685706484       1.57167602281699       1.22143345398267
H         0.67364512502786       0.29609326373480      -2.13236837374736
H         0.23985942250849      -1.34106368418007      -1.59671444316879
H         1.81258160363605       1.14309311327675       1.32290634604257
H         1.66742730841372       1.85109083449691      -0.30805796730543
H         2.82607867432797      -0.61696434098231      -2.30631617581542
H         2.51864073956772      -1.86590073455642      -1.09460710053660
H         3.35937631880078      -0.49356799798897       0.58260360764900
H         3.72305889153863       0.75006756878332      -0.62457386107953
H         1.34143864437161      -1.58466247159698       0.95212674396580
H         0.36709622709004      -0.51890094193078       1.95804524918440
H        -0.47202204785944       1.72358080963411      -0.85016669113030
H        -1.49013907072699       0.31894906628234      -0.49124118222252
H        -0.72764978946616      -2.68644542094767       1.56066864684381
H        -1.72337942512442      -1.38538241657107       0.91123716926931
H        -0.77850548262869      -2.41338147014193      -0.18123288627201
H        -1.86148921134473       2.27931149467943       1.04452056057839
H        -1.39374540678070       0.82490861850588       1.93456684841683
H        -0.21074466788344       2.10184273677635       1.66231296814519
B         2.35322496646446       0.51526199879188       3.42723036311849
F         0.97200554936335       0.85962176422058       3.23975885054891
F         3.11768229597282       1.53736103043760       2.85679848913441
F         2.56543547064031      -0.66666241733804       2.65529757957908
F         2.63237200237435       0.30815202232561       4.74397571631882
