49
C15H14F18NP optimized with ADF in AMS.
N         0.92858919629008       1.15932965753866       0.00956890017261
C        -1.40134743301375       0.69242895672899      -0.68649598771054
C        -0.47535952467160       1.02293740620004       0.47746558522918
C        -2.85176878889871       0.52508911513610      -0.24393481578791
C        -3.75667499006776       0.25314281746147      -1.44450340924040
C         1.43890456210130       2.38134876919935      -0.25973851731565
C         1.63386413001994       0.03784598705230      -0.25876924797620
C         2.70050113384286       2.50949704976853      -0.80549886425641
C         2.89459745236678       0.11714308870744      -0.81303505311087
C         3.43747518728565       1.36706237641334      -1.09577115323203
H        -1.05011253768290      -0.22769961139538      -1.18507179704799
H        -1.32867099055193       1.49269950237569      -1.43653835511776
H        -0.48167425796806       0.23758776385590       1.24989652822610
H        -0.74773567513868       1.97511766412363       0.95491008912135
H        -2.92930536327222      -0.30134227222459       0.48597375860992
H        -3.18624414054168       1.44124493558639       0.27528084050911
H        -4.80324881739952       0.12104662270248      -1.13373207185927
H        -3.71129251040840       1.08773855848211      -2.16092468496551
H        -3.43846546235297      -0.65608746023270      -1.97786272097287
H         0.79114374069994       3.23307276060679      -0.06573147759157
H         1.13787303285539      -0.90463464814420      -0.03543269023124
H         3.07085600359343       3.50215223659731      -1.05333738211833
H         3.43173445590922      -0.80192616328288      -1.04476889196608
H         4.41646076152075       1.45206166762378      -1.56850035632609
P         1.44309155998581       2.99007914201444      -4.71611340427068
F         2.14354356426430       4.46378258452710      -5.02035538722251
F         2.65094154665235       2.65607985779722      -3.58213622215401
F         0.20053598281353       3.23554246566882      -5.79367693993177
C         0.42124237971774       4.04045582652883      -3.34512246686860
C         2.51793839565673       2.30407542608124      -6.23305832070241
C         0.71683870742366       1.18163778164406      -4.20097111399615
C        -0.56956526821333       5.14203858123202      -3.85480341536682
C         4.00176721383810       1.91536409076118      -5.97710767528832
C        -0.70189235802434       0.75316474101476      -4.66584647376553
F         1.32430214670392       4.70890434426709      -2.53121845556927
F        -0.37231665535171       3.30279258179339      -2.46456213088885
F         2.57122822574120       3.29002491248497      -7.19261715221686
F         1.92745541223635       1.22214756072473      -6.84964145991828
F         0.68817356547648       1.06286713177564      -2.81425418507516
F         1.56125984493905       0.17289808179169      -4.60142286008302
F        -0.98866821574469       5.87518151805344      -2.77284752793842
F        -1.67175853213444       4.58609035613505      -4.40896229426827
F        -0.01852287873012       5.99538247691163      -4.73365446459064
F         4.59249163188084       1.55915605733992      -7.15119352059288
F         4.69884565497703       2.95628401883703      -5.46120992695816
F         4.12532216109793       0.86026585149221      -5.12809827963426
F        -1.64391938619260       1.64016025820900      -4.26230019902026
F        -1.02249929279899      -0.45750651300988      -4.10098043768761
F        -0.77448039643197       0.61262040944385      -6.00028743073279
