38
C8H20F2N2O4S2 optimized with ADF in AMS.
N         0.50936059061559      -0.02453825476211       0.03253258274565
C        -0.71692838393025      -0.09252713942549       0.92719442398981
C         0.15727916704224       0.53355357495738      -1.34066946565228
C         1.06340530915581      -1.43388957374805      -0.14664923163563
C         1.53498683812512       0.88757587735245       0.70296999110875
C        -1.92680482634411      -0.79689105804833       0.34537921477819
C        -0.38967926177153       1.94462616623684      -1.34053274078299
C         2.36139497803207      -1.53028000985282      -0.92001631868680
C         2.13222992447415       0.35201638919664       1.98686881049572
H        -0.38653286818350      -0.59378238040880       1.84635577619516
H        -0.96290011794963       0.94721690940875       1.18471109998838
H         1.07434120028004       0.49686355210628      -1.94000520405046
H        -0.55621438484974      -0.18084901041902      -1.77584527361119
H         1.17546235817133      -1.83884555081138       0.86964114199123
H         0.26873329677620      -2.00029926817883      -0.65167671787753
H         2.31363799769893       1.09311441041117      -0.03994140290318
H         1.00591243719383       1.83261025582374       0.88614059799524
H        -2.70467704512054      -0.81907702429517       1.12451391669617
H        -2.34637741015571      -0.26784556092420      -0.52079783084161
H        -1.72143216625976      -1.83909869151943       0.06541566819208
H        -0.67285475606238       2.17922685661876      -2.37821640049540
H        -1.28555043778689       2.06999725288619      -0.71457980008945
H         0.38004789217291       2.67485479931753      -1.05822773075444
H         2.66508984810472      -2.58898280798171      -0.91853862523448
H         2.26573132609689      -1.21971981100550      -1.96884077812290
H         3.17831526173910      -0.95486967415706      -0.46671911512124
H         2.81866753808956       1.12604240469758       2.36217611844482
H         1.38725632271668       0.15927202570018       2.77191377554929
H         2.74347201537806      -0.54580447673738       1.82483101598113
N         4.66536625418946       0.66435378384781      -2.16614467863922
S         3.48414809416889       1.56562283757860      -2.74870243483209
S         5.60125968331720       1.20732007612504      -0.96820052542341
F         4.22760883496605       2.57950790853338      -3.79971392741977
F         4.63391088473029       0.82720393539803       0.37600475586110
O         2.65253273845623       0.71532209640845      -3.59185239508662
O         2.81348804836515       2.45519684404646      -1.80338152527936
O         5.75861666461662       2.64330739826279      -0.86501240156258
O         6.71567887044092       0.29805285836123      -0.82366333111010
