30
C8H20ClN optimized with DFTB in AMS.
N         0.04526640075653      -0.02634025092845       0.01968651069958
C        -0.74295426901842      -0.36413817944668       1.26100131505000
C        -0.85947324510210       0.33201994966689      -1.13252807832510
C         0.85673064813083      -1.23417885664061      -0.36394268153948
C         0.92908342828098       1.16270551882663       0.30767423555108
C        -1.82899738979544      -1.41007242025526       1.07181358755987
C        -1.88218358661935       1.42371804350947      -0.85296421641388
C         1.85958345260394      -1.02445242288519      -1.48987829140590
C         1.86497880273676       0.99283893899285       1.49225233902114
H        -0.02195515065567      -0.72363706091053       1.99787853121941
H        -1.16986879925049       0.57902953976311       1.62792727624660
H        -0.20951658988835       0.65097741965474      -1.95095428451809
H        -1.36695402305002      -0.58690368557210      -1.43789763274844
H         1.38290833215508      -1.56733896206192       0.53340273609303
H         0.14862649421120      -2.01352503923910      -0.65408113601958
H         1.48652697014715       1.37680639281405      -0.60620115923481
H         0.25989481914033       1.99908101451327       0.53082050466330
H        -2.28361193175787      -1.57567943744009       2.04865303419465
H        -2.60983203197470      -1.07415096329136       0.39247775909811
H        -1.43501259504967      -2.36191837657087       0.71599405766891
H        -2.46604659570923       1.55766773508912      -1.76399380112053
H        -2.55837779732573       1.15716675359100      -0.04499137077809
H        -1.41054319615220       2.36979906882647      -0.60013012841211
H         2.31589878293716      -1.99110840733323      -1.70390549249020
H         1.38333526251393      -0.66499225751667      -2.40008770950356
H         2.65060432557597      -0.33358687579232      -1.20501220918254
H         2.55822415135940       1.83383562469301       1.47901011776384
H         1.30859402489684       1.03491484937296       2.42739132263353
H         2.44333614554686       0.07061019166086       1.45197127985104
Cl       -1.19819901504373       2.69303447190997       2.08731954107824
