56
C14H28F6N2O4S2 optimized with ADF in AMS.
N         0.25646015987432       0.45900175384057       0.02916883536652
C        -0.19936175757182       1.37361157120853       1.16678306772364
C        -0.93025333191313       0.00383876005454      -0.80616779296587
C         0.92661895411914      -0.76082760104635       0.63710583033158
C         1.21647187807929       1.22327465647603      -0.87216307898037
C        -1.36617797666388       0.85016321201431       1.99108583532134
C        -1.75588564082691       1.11201714066505      -1.43805765772217
C         1.62998060824921      -1.70445024003569      -0.32635029899403
C         2.50266533371374       1.69272897933227      -0.21664209877491
C        -1.55894357660936       1.73354564111847       3.22475307298902
C        -3.00196117294273       0.50383221769224      -2.08268581372672
C         2.20858963672299      -2.88799437458822       0.45160193170538
C         3.36668655922832       2.38735756491694      -1.27110534453587
H        -0.44930859870138       2.34671398437211       0.72307916020718
H         0.68620522204081       1.51247841730097       1.80294604650508
H        -1.55122940310954      -0.61189726909977      -0.13711624675337
H        -0.51778500412106      -0.65508956657829      -1.58403720341519
H         0.13999647591066      -1.30018708953755       1.18355841075227
H         1.64373754168548      -0.37870507517901       1.37835946695960
H         0.66297526609091       2.09341947020760      -1.24669617625894
H         1.42570686517335       0.55843467021356      -1.72462823461944
H        -2.29055957816429       0.87255061153546       1.39261414032533
H        -1.19701126455572      -0.19156296623570       2.31290812733072
H        -2.06001787123936       1.86113853777249      -0.69136756046490
H        -1.17304601445419       1.65403599843765      -2.19798639591372
H         0.93199428975045      -2.08042748453555      -1.09136912204617
H         2.44466599835109      -1.18173165066756      -0.85221696978702
H         2.27231343537478       2.41654926269623       0.57955135555319
H         3.06282054239456       0.85135515003397       0.22652435365751
H        -2.40916268412395       1.37319820737257       3.82174338740055
H        -0.66331068045833       1.72331731421402       3.86466018478187
H        -1.76293815012776       2.76964594765288       2.92320319064269
H        -3.59552193567480       1.29200376574320      -2.56714757572662
H        -2.74171676574935      -0.24327996286205      -2.84945259012231
H        -3.64267994631299       0.01374047834738      -1.33253019707461
H         2.73671526417559      -3.57454904976837      -0.22542838379019
H         2.92615136328991      -2.54984517283500       1.21541278921010
H         1.41603009510771      -3.45859555958464       0.96000558368836
H         4.29629347241805       2.76206061077697      -0.81894617223963
H         3.63664211672570       1.69719211782873      -2.08601585034172
H         2.82846217563776       3.24364684500614      -1.70107779536998
N        -1.34912868647543       5.63622214959234      -0.92041968220484
S         0.01097885552802       4.90347496339461      -1.32780985176139
S        -2.20929363775975       5.20718499813812       0.36098148029046
C         0.92485539826604       6.39790054325480      -2.01878500084441
C        -1.28438120189640       5.90463551960100       1.88388432565230
O         0.83753821929001       4.42804111388955      -0.20803344562875
O        -0.12735717949102       3.99912695631210      -2.47506749132063
O        -2.23215553588115       3.75954222962143       0.62319633658218
O        -3.45622138996077       5.95077977521238       0.34053206179054
F         2.15260643641235       5.98103663267019      -2.43304573963337
F         1.09123028852422       7.34519230543618      -1.07420722733303
F         0.27521221650486       6.93275245798897      -3.07178414340925
F        -2.18443250736909       6.17066548170888       2.86251331263818
F        -0.62716097628539       7.04315998913405       1.58156203101927
F        -0.39116918699978       5.00868947086823       2.37614542213458
