38
C10H20F3NO3S optimized with ForceField in AMS.
N        -0.05437577094102       0.25066768524464       0.17448605715434
C        -0.97680620899237       1.23602233932296      -0.47586688011021
C        -0.48731332570513      -1.14796345715495      -0.13171517754092
C         1.30863255127088       0.50005854845894      -0.40290532806673
C        -2.47061901914861       0.99864127193779      -0.18425580824796
C        -1.96663080863599      -1.42043211301125       0.19278912765524
C        -2.87114310013694      -0.43029691620664      -0.52996494550579
C        -0.01918347833510       0.48348284425973       1.64427670240059
C         2.45061781910535      -0.37798953596129       0.16478336415494
C         3.77387854849618      -0.06139873719132      -0.52842700368430
H        -0.85685946025955       1.20418427135742      -1.58404331494546
H        -0.72315372836443       2.27432030602509      -0.16143732808809
H         0.10866305863142      -1.88422486582167       0.44865701999647
H        -0.32599961099234      -1.37486895852120      -1.21071025005375
H         1.59599633804673       1.56601028228246      -0.24458132352024
H         1.28570999353250       0.34707224251220      -1.50704352026603
H        -3.07332601162973       1.69838407887836      -0.80281044900352
H        -2.71308084703961       1.21987227801404       0.87559385019905
H        -2.14259270247079      -1.36776454475386       1.28823751348969
H        -2.22649480330355      -2.45080028885499      -0.13293278978143
H        -3.92705857982869      -0.60280504844706      -0.22895701537116
H        -2.79496687141880      -0.58603261799709      -1.62900230154340
H         0.54771465673013      -0.31414897637574       2.16997706350705
H         0.44870340379340       1.46432781605796       1.88351602456037
H        -1.02971854571110       0.48254333108149       2.09621824621836
H         2.58784746860825      -0.19182074953091       1.24953220794740
H         2.23948012410448      -1.45373479220845       0.00708942343005
H         3.69749070848982      -0.25961631689340      -1.61889969425300
H         4.05009863850242       1.00251322364389      -0.36759432189069
H         4.57701417224659      -0.70315458660612      -0.10842866805293
S         0.35438225435136      -6.05374586411191       0.43043430140587
O         0.16973123124686      -6.83495758723070      -0.87908833565847
O         0.45085752953783      -7.16395067845993       1.48754948037018
O        -1.03824147520639      -5.45513392981651       0.67853172110619
C         1.72261008267124      -4.86008178903233       0.43218037159985
F         1.56023703020040      -3.97364079422998      -0.61485369412340
F         2.92138882630909      -5.53113233947717       0.28313273344790
F         1.72952004814519      -4.16617372648251       1.62739475756393
