60
C16H36F6NP optimized with ForceField in AMS.
N        -0.00580182129010       0.00432187234590       0.00200813004708
C         0.83991089613436      -1.02499139875267       0.70435602318568
C        -0.88085763003965       0.68305258100613       1.02288375556125
C        -0.82942022458960      -0.69046219309252      -1.05025191536379
C         0.84664573727819       1.04859961111913      -0.66960410097550
C         1.89159740180721      -0.47522101349271       1.70288661689648
C        -1.94800759132572       1.65875921428167       0.46143850562670
C        -1.89497235699471      -1.68875302504869      -0.52848555744475
C         1.94091688999381       0.51496759140762      -1.63011375574904
C         2.67154423295913      -1.62803597552035       2.34942709794348
C        -2.76188154728152       2.28272794883339       1.60331493701760
C        -2.65098014551171      -2.32920650507760      -1.70017528878172
C         2.72373975027633       1.67612004435693      -2.25629621921956
C         3.70387896074344      -1.10971222315862       3.34615137182816
C        -3.80635841070019       3.25987731549214       1.07139392091121
C        -3.69677324330701      -3.32459241074922      -1.20692004095664
C         3.78830652369903       1.16692555406619      -3.22365316945884
H         1.36340566385299      -1.66891962068286      -0.03587878735450
H         0.19452333365404      -1.71406538724658       1.28952238491306
H        -0.25787878535504       1.27997846093570       1.72249348333244
H        -1.39676398151628      -0.07124977426383       1.65760438137103
H        -0.17041039089563      -1.27491654383506      -1.72657770151055
H        -1.33673583611369       0.05393494950716      -1.70328307267732
H         1.33541695890969       1.69966624834321       0.08898571145970
H         0.21069124275045       1.72785522803499      -1.27630452256231
H         1.39645816966968       0.09695554839344       2.51322312951956
H         2.61821217713152       0.19042797660284       1.19478006849290
H        -2.65168415650940       1.13437162675328      -0.21630999138424
H        -1.46362144564799       2.48330925029459      -0.09962391302696
H        -2.63419817534682      -1.17993040434351       0.12279875065058
H        -1.41424045099533      -2.50350817346152       0.04979744441251
H         1.48690380058451      -0.07228542646832      -2.45345427257128
H         2.66127336173558      -0.13036334457068      -1.09050787493033
H         3.19444984137906      -2.21658691130577       1.56442411482783
H         1.96783594710350      -2.30296702756061       2.88397386906754
H        -2.08219918972365       2.82878985506653       2.29351683531599
H        -3.27840984877628       1.48336117227328       2.17806533644206
H        -1.93416771125951      -2.86342004497304      -2.36167763595601
H        -3.15921264053990      -1.54046918923186      -2.29661550755390
H         3.21863690167150       2.26993215346748      -1.45713918984835
H         2.02768858990739       2.34310064197638      -2.81048483701093
H         3.20509650938739      -0.53092185921138       4.15269479229064
H         4.44468675932624      -0.46124330156077       2.83183625285689
H         4.23908361435807      -1.96772072057860       3.80409622248530
H        -4.52296892160402       2.73382268435040       0.40535863251316
H        -3.31499839632138       4.08146151843411       0.50758897313470
H        -4.36828700321033       3.69991874745078       1.92169740062270
H        -4.44741689653977      -2.81068776185242      -0.56948042670289
H        -3.21195037788062      -4.13604669208989      -0.62316948130228
H        -4.21774631458577      -3.77567036982645      -2.07718598855453
H         3.31628432009529       0.59134816284840      -4.04843295770042
H         4.51466809800068       0.51683214157608      -2.69093496058718
H         4.33461199252125       2.02928810949129      -3.65969385232918
P         3.14951047868674      -3.95585018742149      -2.20927584880324
F         4.56764269835514      -4.68262606247585      -1.56694912114836
F         3.56932112120439      -2.57451770027205      -1.28057510216300
F         3.95133886330497      -3.24329834113757      -3.55131361833405
F         1.68747069693168      -3.26337124966569      -2.78784495148193
F         2.96051519175359      -5.39319345545594      -3.13106284838187
F         2.18690852549479      -4.58319239722491      -0.93190042800080
