33
C9H15F3N2O3S optimized with DFTB in AMS.
N        -0.79662797529999      -0.01992357407905       0.53313956951710
N         1.27795127291979       0.50851174076579       0.29077576394296
C        -2.20406001115952       0.08265570472478       0.92257863028113
C        -3.15012336201562      -0.25631808591561      -0.23068594705932
C         0.12977559293433       0.88221061756802       0.84574206198490
C        -0.22646708955846      -0.99163058203432      -0.24468778261074
C         2.50267154389171       1.30710881302680       0.28642946993833
C         1.08070677092339      -0.65516399064577      -0.40170581313905
C        -3.01934858948699       0.71585524218160      -1.40005996211010
C         2.83642822308082       1.74357341695771      -1.13495161025504
H        -2.36304947083555       1.11350693512384       1.25116714757167
H        -2.37174339462192      -0.59713961825591       1.76485799236848
H        -2.97374998869736      -1.28305626113560      -0.56701125703514
H        -4.16634121857161      -0.21151594385040       0.17332870136713
H        -0.02719070047632       1.76455553755588       1.44111109533685
H        -0.77967117194426      -1.83396391911692      -0.61990915690582
H         2.31829534918507       2.18070080915999       0.91563979018924
H         3.30736938403129       0.70390951864761       0.71867590289675
H         1.87166610975198      -1.14712726932857      -0.93975025315654
H        -2.01211830347245       0.68674276014061      -1.81383415149857
H        -3.22346857374741       1.73338232636055      -1.06965650274819
H        -3.72876679309341       0.44786175229272      -2.18281334133661
H         3.06776685298549       0.88319573216559      -1.76229445975645
H         3.70124826076072       2.40464486675843      -1.10549197567920
H         1.99144652620790       2.28021875247082      -1.56311590444777
S        -0.54444605138867       3.36675387687765      -0.53174056215524
O        -1.70865693764708       3.10852727240898       0.30543935880147
O        -0.32598198885030       2.36133914140326      -1.56314084213949
O         0.65708520745842       3.70957719070691       0.21596126688829
C        -0.96748715781861       4.89738919935683      -1.47550627701651
F        -1.21424459542416       5.91113215214256      -0.65712367469067
F        -2.04492681634252       4.68984386489907      -2.22468495578470
F         0.03831915082124       5.23639060496619      -2.27395113955918
