28
C6H11F2N3O4S2 optimized with DFTB in AMS.
N        -0.08565620167946      -0.75528441206873      -0.68624618553032
N         1.88196164791262      -0.32232398613411       0.06805716432075
C        -1.32117579156270      -1.46120724580490      -1.02892090012372
C         0.91808807995314      -1.23912614477191       0.04482142702417
C         0.25573385089378       0.48488126462825      -1.15085433412465
C         1.50006839231330       0.75723301762154      -0.67827485656741
C        -1.95468165662442      -2.09794787832401       0.19922122650826
C         3.19521804472582      -0.49225895643625       0.66745673857405
H        -1.99542396656189      -0.72870852523626      -1.47959647905348
H        -1.07454382456054      -2.22252836978372      -1.77520527426916
H         0.96224123708931      -2.21233220990276       0.50363098335919
H        -0.40181556348913       1.06189652311895      -1.77708143704398
H         2.13843186693570       1.61176756073743      -0.81706625155576
H        -1.32444297251170      -2.89617076374770       0.58691024918773
H        -2.91469487246880      -2.52500583785046      -0.08698460620581
H        -2.11451332767353      -1.35508210857179       0.98049827172539
H         3.21037941108130      -1.42963925102272       1.21854652560693
H         3.93498184935098      -0.52821434040081      -0.13285032412781
H         3.40211355254020       0.34589552130920       1.33250815128595
N         1.29836958526815      -2.90584143312274      -2.56260139290963
S         2.77710120470469      -2.61181992031328      -2.06375847379522
S         0.65553348773442      -4.28799909656209      -2.10812561072208
F         3.72419143738798      -3.52404101733064      -2.98511920967763
F         0.40884186336125      -4.03962739531763      -0.48659329549477
O         3.09189794813932      -1.26319815413404      -2.43305425477133
O         3.08491438273830      -3.01268552594107      -0.71798643995426
O         1.46855625831720      -5.45147391062241      -2.15813670491200
O        -0.67516772671530      -4.32166115631536      -2.62339970305339
