41
C13H21F3N2O2 optimized with ADF in AMS.
N        -0.60954474082347       1.52205809415521      -0.16215012362335
N        -1.80290981270884      -0.23760384125054      -0.54761385866061
C         1.64859594829431       2.14761197145980       0.63447015872589
C         2.32472927694088       0.84844128592037       0.20902567967105
C         0.46784321191490       2.51405410594840      -0.26294306565359
C         3.52844211618453       0.46958031467751       1.06793001115858
C         4.21099811252680      -0.80217664564138       0.56467041726760
C        -0.81051599732918       0.52468466883159      -1.03749611387778
C        -1.48047604723751       1.38993092874031       0.90312554607491
C        -2.24112668406865       0.28405209932206       0.65229133936074
C        -2.37395972619190      -1.39736733117032      -1.25800236925319
C         5.41567983927023      -1.20875127554925       1.40789726343137
C        -3.37160377142247      -0.95857141779736      -2.31685760576129
H         2.36796297013155       2.98406351835552       0.58250407790539
H         1.31112805330614       2.08530654577583       1.68583440255270
H         2.64202940551815       0.93781554365400      -0.84240626362321
H         1.59514313913491       0.01864654094559       0.23724490682247
H         0.03726004075774       3.49343151807071      -0.00422675054401
H         0.77150993511046       2.53474597765206      -1.32028124522270
H         3.21243563767861       0.32988643542201       2.11943099513127
H         4.25885410859281       1.30105199790704       1.06790531833268
H         4.51963311598818      -0.65131985538545      -0.48445243234260
H         3.47273182995449      -1.62453321616865       0.54723089934292
H        -0.29500470606601       0.27148228159361      -2.01665165808787
H        -1.48377704954366       2.08295087121400       1.73544726187188
H        -3.04494078327314      -0.16861327289418       1.21941112479384
H        -1.53211923479078      -1.92527991103772      -1.72989662361251
H        -2.82784797019702      -2.03984161900865      -0.48899509117273
H         5.12347103841002      -1.39605903578780       2.45406211948607
H         6.18141199600789      -0.41588617518076       1.40997428793442
H         5.88335638325640      -2.12630977506352       1.01838863160506
H        -4.16059280134033      -0.32242506966401      -1.88835578455155
H        -3.84129530693096      -1.84666313915081      -2.76463984323100
H        -2.84081251977357      -0.41951875677578      -3.11517057042937
C         0.80758048836062      -0.91284323795513      -4.11974712930301
O        -0.17755702324198      -0.62299557056059      -3.36195621147553
O         0.87909078502997      -1.65709732345694      -5.09786403584599
C         2.15041652520799      -0.22647783968357      -3.68030777589949
F         3.08769460394306      -0.17541705825892      -4.65595146769135
F         2.71406394713179      -0.90300583227611      -2.61819194428398
F         1.97162664158706       1.07969499857182      -3.24265508702210
