48
C12H26F2N2O4S2 optimized with DFTB in AMS.
N         0.38673770402956       0.40183652032408       0.05832684777950
C         0.17339188946552       0.08008409699878      -1.39282170711961
C        -0.88230910360898       0.97854542517005       0.61352398935435
C         0.78480659028752      -0.80857311881944       0.86001840160586
C         1.46610243335556       1.45802853300316       0.10478255368492
C        -0.99300337339211      -0.86869096390196      -1.62175330128163
C        -2.10425850849212       0.09017531492862       0.39762119668646
C        -2.28520462016390      -0.26384199268532      -1.07730110338647
C         1.98685236651183      -1.58359960736271       0.32517594363983
C         1.88431666921050       1.92398448921698       1.49723180915157
C         2.32562888686762      -2.70764821186764       1.31285625235185
C         2.73492521919815       3.18684633264383       1.35220587185162
C         3.45843766466929      -3.58338770318007       0.78202299974965
H         1.10198846789752      -0.33688431007653      -1.78125018394956
H        -0.01614774229915       1.03034434219854      -1.89895867027994
H        -1.03279257519122       1.94246234965719       0.11966640649553
H        -0.73276990192623       1.14830077580469       1.68118067964640
H        -0.08173337018993      -1.47138116836343       0.90264675980145
H         0.98620763726364      -0.45450923999063       1.87367514831042
H         1.09245856862675       2.30377131458700      -0.47795062458542
H         2.33181061100244       1.04488077347349      -0.41008227106512
H        -0.80188490276376      -1.83915527568069      -1.15665710597729
H        -1.08064066155307      -1.02756285738357      -2.69937878300291
H        -2.97477745729225       0.64531356614304       0.75739862964122
H        -2.02636829352321      -0.82214309716133       0.99495929168561
H        -2.53522612401789       0.63858714336843      -1.64434847395257
H        -3.10803161448088      -0.97398431427838      -1.18643880590522
H         2.85164340965117      -0.93088066375625       0.20765700268552
H         1.75524855544506      -2.01907427792029      -0.64963643289103
H         1.01638290719467       2.14309846979531       2.12600879972639
H         2.48121487247379       1.15005073247554       1.98539644156577
H         1.43463626110453      -3.32319418207374       1.48480880728360
H         2.61968927458364      -2.26873179249368       2.27212150491280
H         3.09519411207590       3.49947512930280       2.33153867361041
H         3.59155568677897       2.98970921938244       0.70937834821707
H         2.14740883904884       3.99680711924922       0.91810093563130
H         4.35276117487567      -2.98631318688812       0.61317007192391
H         3.16953099226907      -4.05155911659516      -0.15963995128234
H         3.68935133156918      -4.36559022188982       1.50515157005354
N         5.51306678529556       0.82867896812663      -1.90131229769059
S         4.09901410980326       0.95147378629862      -2.59379428364761
S         5.51157871557238       0.27521631504295      -0.41093640537445
F         3.44406575375185       2.30028335607515      -1.90583977947324
F         5.17656684270680      -1.30989924274423      -0.59720109491006
O         4.27155508978285       1.31524567585355      -3.95686398068653
O         3.11996892582492      -0.05622675160713      -2.26814142883112
O         4.44197358063396       0.72331838848922       0.44233619490100
O         6.84126062616662       0.30588744011080       0.08799861524516
