36
C10H17F3N2O3S optimized with ADF in AMS.
N         1.44504062353516       0.02381647913270       0.65543710477539
N        -0.25893938065985      -1.19231060939327       0.07656680194992
C         2.51589596218491       0.51354658662452       1.54930266203101
C         3.68046487800385       1.13489117725491       0.80403291876633
C         3.38705733527999       2.48520101795899       0.14935729793579
C         0.39692555402436      -0.66811191214323       1.11659933892063
C         1.47622616957609      -0.09173726394725      -0.71943462706921
C         0.40028016425264      -0.84465893345738      -1.08355234584736
C        -1.42939160396451      -2.06496739955411       0.19722393679367
C         4.58638073398346       3.01148613090532      -0.63426101711382
C        -2.72681326752382      -1.27226093677013       0.18518060702708
H         2.05884562832853       1.23978898421393       2.24096712530876
H         2.85637140712900      -0.37500661216084       2.10090149473680
H         4.06951766905917       0.40034550065386       0.07632001681887
H         4.48794462313954       1.26248014820704       1.54566981324230
H         2.51111960752005       2.41411250019669      -0.51915789023345
H         3.10648629731885       3.20918239614831       0.93578193239572
H         0.16500069311785      -0.83883269002066       2.15836181363020
H         2.27269912477399       0.32367624417054      -1.31749659861896
H        -1.37559620859617      -2.78019117697115      -0.63460785028235
H        -1.28351250439779      -2.64151607626141       1.12317052821833
H         0.07462588066647      -1.19573772860108      -2.05394063507645
H         4.86621748522796       2.31431540957670      -1.44043515274295
H         5.46336571254190       3.12758442450440       0.02209816778970
H         4.37238996371539       3.98907405879080      -1.09069675321725
H        -2.76885711003124      -0.56935695161367       1.03050355596207
H        -3.58177804480936      -1.95893204040829       0.26614749509938
H        -2.83094329653061      -0.69874049678487      -0.74789753740466
S         2.40570827078715      -3.43504625371569       1.38589279039491
O         1.14410132468139      -3.04609974450531       2.07086965338063
O         3.34380962782446      -4.22204082256092       2.18340532097803
O         2.98760572517343      -2.35786267704229       0.55733961378836
C         1.80006013092557      -4.65449734921739       0.08939362046349
F         0.88623825639013      -4.06766296471431      -0.76095015438266
F         1.18357588830547      -5.72301447748912       0.65800178136067
F         2.81743191814659      -5.11543502770637      -0.68024089467890
