43
C11H24F6NP optimized with ForceField in AMS.
N        -0.22924425531167       0.30800618839875      -0.16142938649401
C        -0.92738223765553       1.28123754030858       0.74215978028702
C        -1.12325764399267       0.01097454385349      -1.32801222356524
C         0.11796794316814      -0.93566586939059       0.61247040018183
C         0.99730116998510       0.97206690378148      -0.72318692607447
C        -2.33626111970024       0.83383491812296       1.18288092795794
C        -2.51462339886166      -0.50864631259954      -0.93387264377000
C        -3.21592502205321       0.48706192225734      -0.01523967743527
C         0.91343643136101      -2.00989554750206      -0.16817851772049
C         2.12327955927592       1.28243528489727       0.29302803201049
C         1.22837715442074      -3.20750597455565       0.72472678597180
C         3.27772093724752       2.01804574114833      -0.38403373646714
H        -0.34142680068005       1.45603302123172       1.66995135485145
H        -1.03590189903504       2.27094672004004       0.24133507564997
H        -1.28346045761663       0.93505089587828      -1.93184076780214
H        -0.65652356450340      -0.71156264833286      -2.02885681015026
H         0.69161414459080      -0.67025475691333       1.52751619287605
H        -0.79428793314906      -1.42986104542002       1.00010152162104
H         1.43180014891126       0.35779434609208      -1.54290956326282
H         0.71316024730073       1.93481141847784      -1.20672536989152
H        -2.27906929360004      -0.02961733850494       1.87791990512135
H        -2.81589676633618       1.66376115056193       1.74608852788968
H        -3.12499162713757      -0.63578365442235      -1.85410880611165
H        -2.45021058261949      -1.50620279516582      -0.45238220808130
H        -4.17227694547477       0.04888264552271       0.34254587956964
H        -3.45226320335172       1.41403666265708      -0.58237702482183
H         0.32694921462966      -2.38646044918004      -1.03026288842485
H         1.87745339703367      -1.60609817849972      -0.53753405566949
H         1.75092529538754       1.92557614423807       1.11568238538209
H         2.53463065673206       0.34791363403861       0.72614108447220
H         1.79307812231942      -3.96693085182237       0.14328236368837
H         0.28884509880614      -3.67140262941968       1.09367573966361
H         1.84745118297900      -2.89051761956199       1.59065009157173
H         4.08146294541138       2.21171374058260       0.35756548220791
H         2.93017453705906       2.99133438173738      -0.79147955733219
H         3.69714460535763       1.40318889958524      -1.20853219736853
P         0.75695004663595       3.31885825202722      -4.58756100427157
F         2.00373681699220       3.22773528899444      -5.76526461063650
F         1.82962633275365       2.50428408616215      -3.52338141885156
F         1.33383629145223       4.82479146447047      -3.99611451509156
F        -0.49141204684069       3.40086836016845      -3.41014951010340
F        -0.18258597129460       4.13969798003903      -5.76835766839491
F         0.09852580640343       1.81191732231746      -5.08363846598145
