55
C17H18F18NP optimized with DFTB in AMS.
N         4.51325150381815       0.39706385812787      -0.55904976584236
C         1.33279705683713       2.28969734421221       0.20103605515479
C         2.40618734545530       1.22074807391533       0.42767816535790
C         0.60516683805660       2.60867573215053       1.51019580208316
C         3.19728038094941       0.97962322791777      -0.86439329540987
C        -0.43265156146519       3.71634899287003       1.30631793409562
C        -1.14315239346401       4.05652444303476       2.61510345815692
C         4.57150495487539      -0.80951122967370       0.03195012725017
C         5.62641990848401       1.10216392597214      -0.79787630909609
C         5.78165129300912      -1.34608711849951       0.41016698553920
C         6.86443839204847       0.60831878363027      -0.43279750808787
C         6.95175619028113      -0.62754592381299       0.18611178994888
H         0.61797808972594       1.94412603227292      -0.55362906035545
H         1.81216038598714       3.19853647263915      -0.17550421807403
H         3.09076167879043       1.56577324907453       1.20433810101813
H         1.94977999425159       0.28549083753125       0.76546860585303
H         0.11309669184608       1.70497295122936       1.88680549081829
H         1.33732942154265       2.92935441662449       2.25759667234340
H         3.36989704275484       1.92214801468414      -1.38504888843234
H         2.66831461351275       0.29296148848684      -1.53116280982799
H         0.06544259012158       4.61146954247055       0.91992973255899
H        -1.16995419179771       3.39509018609524       0.56221935359338
H        -0.42480775491410       4.40141902536575       3.35975140377397
H        -1.87645298726774       4.84573214430018       2.44782453179430
H        -1.65928050687468       3.18011550896257       3.01025242916970
H         3.63205789507812      -1.32257732982750       0.19677373779755
H         5.51323408821494       2.07245437613205      -1.26308846444263
H         5.80389899037715      -2.31503606889313       0.89244133018461
H         7.74236119880267       1.21650846975152      -0.60778580862295
H         7.90932363863047      -1.02535820700504       0.49866612742424
P         5.57713406327000       4.29792209921133       1.14374305203477
F         4.36765767380597       3.29595961306585       0.42951845337846
F         6.68638304181230       3.03900527840753       0.82441641103461
F         4.46353785602113       5.50757283841436       1.45420017849819
C         5.79235251641238       4.99636838117763      -0.68319672315437
C         5.03333101319692       3.43299747972927       2.82454613759705
C         7.09761213408753       5.31207577426232       1.89809427213404
C         4.54418246249421       4.99401529778551      -1.61402237446295
C         5.56061645392999       2.00852127334346       3.13709710544172
C         6.91197742589816       6.72884207860545       2.50714317720201
F         6.72517992048619       4.28969272980987      -1.36021642224492
F         6.21253091513729       6.26875745899915      -0.62638062565518
F         3.68806953955779       3.31263808505060       2.82233136562385
F         5.34692643684339       4.20654028186477       3.87450073941122
F         8.03189974053555       5.41782100509348       0.93476092844530
F         7.63209755238619       4.54231542785992       2.86867633903979
F         4.72339921647665       5.82275760367022      -2.63867630955099
F         3.42067429589228       5.33586280143135      -1.00135385878134
F         4.36406690067878       3.76170653336038      -2.13537505793544
F         5.20896928305887       1.15449019740103       2.15424048670630
F         6.87838047236351       1.95205756703216       3.26162734650705
F         5.02003888141247       1.54152175918463       4.26170676680873
F         6.44991311183513       7.58778231618484       1.60436718634902
F         8.08066419234219       7.19107276050700       2.95407925175217
F         6.06309243339762       6.70392169330836       3.52945124449623
