48
C14H25F3N2O3S optimized with ADF in AMS.
N         0.28342707988795       2.13025645272750       0.85026986996120
N        -1.72059202190147       2.17519163902485       0.01477774319710
C         1.69558896147277       1.79589129453930       1.06622899349419
C        -2.88160244552995       1.99009491988961      -0.87618436975384
C         1.86175957115585       0.44058329868025       1.74785040475339
C        -2.80902467921360       0.71016973260655      -1.69765812951971
C         1.56905768919186      -0.74531859734564       0.83325997386191
C        -2.77822916825394      -0.55833364168827      -0.84864603701932
C        -0.45290428720070       1.80788763571375      -0.22666646319459
C        -0.54001460915102       2.69877984482239       1.79860188421210
C        -1.79639530831917       2.73089031652830       1.27062318807102
C         1.61442669408794      -2.08055167466426       1.57343392021348
C        -2.83697287363437      -1.83430171483129      -1.68358267934175
C         1.33398287458381      -3.26515859636562       0.65512504947254
C        -2.81283642675934      -3.08763381344486      -0.81254202589102
H         2.11532204748557       2.60839602125554       1.67750937370520
H         2.19612268487932       1.81958708097573       0.08569115573226
H        -2.95401456153226       2.88222947390509      -1.51865120787513
H        -3.74765803339124       1.95090887179965      -0.19937178165806
H         1.20384305840761       0.40491344418305       2.63331987988684
H         2.90078279500160       0.37964585938165       2.11737180605551
H        -3.70950093050186       0.70793630064805      -2.33780118279566
H        -1.95244223702286       0.74201573996102      -2.39812662553530
H         2.29758293213005      -0.75501876400115      -0.00138064673928
H         0.56601654196406      -0.63684892846745       0.38592111041859
H        -3.61529131168905      -0.53071324562452      -0.12930620693719
H        -1.87053858855976      -0.57726315747709      -0.22462748339498
H        -0.08625750835133       1.31716091453667      -1.11706122562807
H        -0.19351212974562       2.95864341845132       2.79074067626128
H        -2.74224464882992       3.00297287699780       1.71929600707544
H         0.86767574550670      -2.05643560731005       2.38597031430902
H         2.60375641202452      -2.19950036021850       2.05238139679273
H        -3.75460595260027      -1.82668425943523      -2.30030691625504
H        -1.98693895511912      -1.85421725688677      -2.39228096067641
H         2.07667009438188      -3.32810873553689      -0.15711038238923
H         0.33781079001115      -3.17298483514781       0.19532131132467
H         1.35780005608709      -4.21462999560662       1.21120025677077
H        -3.67197951110898      -3.10090276735592      -0.12387388318569
H        -1.90346218980738      -3.11612887125655      -0.19379200552421
H        -2.84256551589052      -4.00366643742964      -1.42177587750190
S        -3.34330555492457       0.61553727905329       3.33438379930853
O        -4.31688922098040       0.01911751989586       4.24515267339846
O        -2.42289130134952       1.62033609351553       3.89963083636654
O        -3.84629453448458       0.94707648169937       1.97697078878041
C        -2.18184000283514      -0.82021841172289       2.96401569932726
F        -2.81711234517533      -1.87132378742444       2.38075411122677
F        -1.55601073490894      -1.28246920187192       4.07805396713382
F        -1.18579616548750      -0.42677286097872       2.09089447900535
