24
C6H9F3N2O3S optimized with DFTB in AMS.
N         1.69819235694259       0.24272309438323       0.13449535556187
N        -0.26560844738792       0.83705800970721      -0.50891866466929
C         0.84553145363971       0.21098232019217      -0.88588246744048
C         1.13397162477594       0.93525651902159       1.17056581412066
C        -0.10766340075681       1.30835965755942       0.76553751392636
C         3.09711897131378      -0.14350678460904       0.06126862028977
C        -1.36721172696450       1.16119151515779      -1.39878959518001
H         1.02797926490492      -0.22369769969681      -1.85306616883524
H         1.65912371144814       1.10744478272900       2.09366451120294
H        -0.87750864109834       1.86589878432841       1.26933552150305
H         3.21488052145348      -0.92312647827744      -0.68842630962728
H         3.66913470347328       0.73948889511836      -0.23402982990484
H         3.42532815864677      -0.49977645509296       1.03609861661524
H        -2.30219152150539       1.14519687910105      -0.84104642382778
H        -1.18559454479519       2.15308459344629      -1.81617123088583
H        -1.39162662727576       0.43365178135465      -2.20712667746025
S         2.17427957733233       2.65554663800432      -2.46192956378221
O         2.42239293686799       3.91510454311466      -3.10460846653508
O         0.93682983893517       1.98326926286622      -2.85205276221945
O         2.43169461386266       2.60945772569711      -1.02930610865858
C         3.47249611525574       1.48989143408304      -3.11766453372752
F         4.62222563097096       1.62441608749604      -2.45843689688480
F         3.70789180201345       1.62427389096275      -4.41084122383177
F         3.05790756074700       0.21939118275291      -2.90605586424951
