35
C11H20N2O2 optimized with ADF in AMS.
N         1.44574280952836       1.50194632578877       0.41457283393830
N        -0.04964119717535       0.26655110573979      -0.52794637161850
C         2.76427911816821       1.93421358472632       0.88907154721095
C        -0.71359423437859      -0.92715582519856      -1.07160876719668
C         1.21866685739619       0.27363221366323      -0.08653408932001
C         3.58142169389650       2.59118049025750      -0.22318883059401
C        -1.52117187471713      -1.65053006364297       0.00516434635610
C         0.31371802791251       2.28541066524931       0.28743046693600
C        -0.63682230047757       1.49792852224564      -0.29668765636966
C         3.86591869038625       1.64662282150714      -1.38895703526137
C        -0.62862054467109      -2.21945728395881       1.10605858945626
H         3.27242765678890       1.02868402566241       1.25402256409886
H         2.60581150286770       2.61643113217129       1.73826720440786
H         0.10214584999933      -1.58315419578631      -1.43091564994941
H        -1.34446940612717      -0.59654547333984      -1.91080036198634
H         2.04256646025079      -0.56729054287282      -0.13013197151401
H         3.05718376304766       3.49839050273311      -0.57335248522003
H         4.52751561898056       2.92905111085518       0.23428266819742
H        -2.28672385766492      -0.97228333374222       0.42540078347302
H        -2.06333085317586      -2.46781605658755      -0.50149810775142
H         0.27901899081309       3.31619191503848       0.61930534541337
H        -1.66766792412483       1.70450383857297      -0.55916587144813
H         2.94092861254025       1.37800933841791      -1.92212439024204
H         4.31513561443944       0.70434233622836      -1.03683985200892
H         4.54276288929879       2.12022870518089      -2.11516820366487
H        -0.12716292416750      -1.41618629346109       1.66893096859470
H         0.15481697679944      -2.85445577357804       0.66328518628469
H        -1.21679520195349      -2.81083228411692       1.82348395668302
C         4.07199098895558      -3.53636288401058      -0.92693460264829
C         2.95334645309148      -2.51236711102324      -0.74677656947710
O         3.29045737825387      -1.43995431673367      -0.11820515640795
O         1.81318402014976      -2.76608603332158      -1.21355635981238
H         4.87191299434626      -3.09514058795395      -1.54166086877131
H         4.51733011552330      -3.78052063507483       0.04914099712558
H         3.70003538379928      -4.44873659313529      -1.41037398141369
