49
C15H31NO2 optimized with DFTB in AMS.
N        -1.18701860606632       0.40833575555694      -0.18310125448498
C        -2.26542570220397       0.40333330216671      -1.22054058371786
C        -1.40990748854413      -0.74243838422349       0.74959059473126
C         0.13142730037590       0.22086962389836      -0.91308225325115
C        -1.14924255658665       1.69848430341197       0.60464295645496
C        -3.66199101597489       0.47292182356710      -0.61594275196180
C        -2.80668671994811      -0.77736837481671       1.36371795945503
C        -3.89539257570799      -0.73123078038391       0.29387355804568
C         1.27280805191742      -0.32638712849708      -0.06105331251363
C        -1.31301242292519       2.96193496299794      -0.22451753435031
C         2.58566393515610      -0.18913563133558      -0.84293821405327
C         3.77763198345129      -0.55613596999000       0.04397337380729
C         5.10061902792064      -0.36356002179680      -0.70273020528049
C         6.29591232884634      -0.71147851424260       0.18319649126941
H        -2.16300918190970      -0.52739629008785      -1.78616708329613
H        -2.08138821338029       1.24082823188232      -1.89461495883421
H        -0.66346423945247      -0.66843079726983       1.54160610253655
H        -1.23615822883127      -1.65694777210395       0.17551578319670
H         0.41384881200654       1.20678874144999      -1.28998412826151
H        -0.05804990503178      -0.45120974206442      -1.75478278656542
H        -1.93493483030463       1.65164829615279       1.35985632575331
H        -0.16915617804327       1.72897174429953       1.10879953134639
H        -4.38306079303263       0.46812666993633      -1.43743617502804
H        -3.79751967155294       1.40050814576599      -0.05514600792542
H        -2.93963714701056       0.05132061421041       2.06365625218026
H        -2.88520343170972      -1.70608021906899       1.93520597342251
H        -4.87652827186088      -0.65666772098985       0.76862271196543
H        -3.87220159674127      -1.65085547177554      -0.30007095271067
H         1.35780558864815       0.24899438254966       0.86452383331837
H         1.10402105989258      -1.37874031773224       0.18886064734824
H        -0.59071771363439       3.00158522383870      -1.03673364764296
H        -2.32289644737303       3.08017699604231      -0.61807278329268
H        -1.10150543097816       3.80026543246531       0.43879504171270
H         2.68973653124984       0.84648754570149      -1.17956068273734
H         2.56190119301075      -0.83531583733373      -1.72841408967097
H         3.68829536188484      -1.59860866870831       0.37170654040834
H         3.76772956325935       0.07724986796491       0.93683747107164
H         5.11299351533895      -0.99707775026685      -1.59682262870038
H         5.18332210054632       0.67809949085511      -1.02997117357862
H         6.24675458930174      -1.75420905403401       0.50146310592474
H         7.22649584919160      -0.55926725306286      -0.36458537418848
H         6.30834467334078      -0.07858123037571       1.07158803470799
C         3.23723109566881       3.75838202699283       1.00607033619567
C         2.02885171806881       2.83132856459487       0.73190164859058
O         1.62142792658390       2.78380719569523      -0.44965233121412
O         1.57264594271042       2.19604142817993       1.70796439108486
H         4.13914264069455       3.25218740015398       0.66142499168520
H         3.12374438398829       4.68637867442663       0.44866300896231
H         3.32511597105032       3.96356255130299       2.07100427638505
