31
C9H19NO2 optimized with ADF in AMS.
N         0.17173018634081      -0.06358229013608      -0.14400815543299
C        -0.27311424750199      -1.33663836094554      -0.88001890591440
C        -0.88913792881906       0.13078192534916       0.93031637459713
C        -1.74939315666978      -1.54983453861083      -0.51032638100351
C        -2.18101453459105      -0.29079198469514       0.25825448115351
C         1.52223335483050      -0.23642003288576       0.53103707597776
C         0.17913418961398       1.09924995066772      -1.07396907438895
C         2.64673354126941      -0.60400182510830      -0.41086546029669
H         0.35772303092133      -2.16831455209828      -0.48581002186114
H        -0.09942581963793      -1.17216875465350      -1.95181669190928
H        -0.84098776479822       1.16692137864957       1.29374538285374
H        -0.62582043579183      -0.60689430655603       1.70892233966768
H        -1.80285743725874      -2.41662375349023       0.16551549509040
H        -2.37817058594814      -1.74144147375830      -1.39163965190336
H        -2.57506183846687       0.48988296544078      -0.41316117851455
H        -2.95409367626762      -0.50481359428071       1.01033375549102
H         1.70914730497056       0.71456402029831       1.05657381014447
H         1.34835859982392      -1.04618667363834       1.26053863848020
H         0.88876429810144       0.90643161647208      -1.88607102847629
H        -0.82527176822723       1.22774820776073      -1.49404225267862
H         0.47623409721358       2.00032411863458      -0.52093288602326
H         3.56997366410503      -0.66340999541525       0.18487125673259
H         2.47723897657560      -1.60479977480354      -0.83099069108731
H         2.81951642894922       0.13210166112530      -1.20966294931303
C         0.84942164608394      -4.72296393641866       2.45603153758878
C         0.70325319703496      -3.44441394315975       1.62249036150113
O         0.02828484434770      -2.48889684981380       2.12689247947526
O         1.28334359842756      -3.44313951854746       0.49266400186682
H         0.26748682632756      -4.67002822764920       3.38543402444513
H         0.53138920165801      -5.59231755600867       1.86126162182600
H         1.91269836548336      -4.87610786042486       2.69765669351175
