23
C7H10BF4N optimized with DFTB in AMS.
N         0.45534491649375       0.22407321873877      -0.43231791290598
C         1.85848752907092      -0.01187658118743      -0.80320064583455
C        -0.03337511046099       1.47060437839781      -0.48080782456559
C        -0.27283104226517      -0.79155141514616       0.07365084752642
C         2.70212305119201      -0.18458698910271       0.45524220103590
C        -1.33387581256918       1.73045176372405      -0.06319044811542
C        -1.55530012648043      -0.57839037706789       0.51367498948757
C        -2.10029376559944       0.70720959485523       0.45149838366329
H         1.90056531003581      -0.90308344280528      -1.43611939529985
H         2.20372121840026       0.85783339647270      -1.36548010326992
H         0.58283002118219       2.23275737664985      -0.93729980079351
H         0.19747032038205      -1.76713822158470       0.10072540534067
H         2.60827038242472       0.70007621022954       1.08234194269413
H         3.74378175477093      -0.30566056411397       0.16279121209403
H         2.38466906064160      -1.06218440201202       1.01787708176006
H        -1.69522699159984       2.74935810562768      -0.11270981282628
H        -2.12687707790169      -1.40735589013467       0.91085408537355
H        -3.10928876745532       0.88793574794423       0.80177260326834
B         1.71517724273506       3.35141251138338       0.72343003998799
F         2.54103963295162       2.77387921264924      -0.26908102454996
F         1.01843500184506       2.22943923978965       1.32992056677143
F         0.73771106365048       4.12638646805111       0.10044964136540
F         2.43048314255561       4.02319817034160       1.66414545239225
