61
C19H36F3NO2 optimized with DFTB in AMS.
N        -0.31953173528452       1.05826672734116      -0.16189310938615
C        -1.10589837482679       1.67933272463455      -1.27434056356289
C         0.11881964557587       2.13921991037891       0.77944917686797
C        -1.11061628302547       0.01225934563640       0.59280333997152
C         0.90454379908147       0.41813558739726      -0.79226382934821
C        -2.30662460695723       2.47298878011538      -0.77539459566106
C        -1.02299631852053       3.01442674879773       1.28938005884907
C        -1.83969768470147       3.60168057465006       0.14068257961406
C        -1.97397627229727      -0.90482660949770      -0.26989488854335
C         2.04396349231077       0.09330207653395       0.16963772088862
C        -2.53579156705856      -2.02069113650934       0.62083195422607
C         3.11953670792089      -0.69063395964354      -0.59408139376564
C        -3.41145219848730      -2.97602937920130      -0.19377590560203
C         4.18134302423806      -1.24319514937316       0.36081400247420
C        -3.85405560178686      -4.17346290240458       0.65300682645571
C         5.07624176377786      -2.25501564552969      -0.36159617230882
C        -4.74615362584145      -5.11697543576209      -0.15193184006152
C         6.14720283250252      -2.81798507001304       0.57020688859844
H        -0.42684589165217       2.34987058429590      -1.80890631825454
H        -1.40939161732186       0.88165262718247      -1.95327360216713
H         0.61535165878351       1.65683992040885       1.62259030353152
H         0.84498909270169       2.75426057077928       0.24056009321709
H        -0.37770723912455      -0.58932851559141       1.13276713326761
H        -1.74148914556873       0.53012020504152       1.31699701221136
H         0.56041195929128      -0.50405727989483      -1.26370756136370
H         1.26116121735739       1.10569165448018      -1.56381323735503
H        -2.81967341930569       2.88492649452323      -1.64799969203559
H        -3.00960003155239       1.82520437513343      -0.24689345766758
H        -1.67642753548092       2.44445739401389       1.95486165451314
H        -0.57459935156608       3.81871587903870       1.87847671128521
H        -2.70165257914957       4.14127050724262       0.53931448516209
H        -1.22673220141282       4.30829464834998      -0.42814974569698
H        -2.80096259897971      -0.35159175160981      -0.72516562758410
H        -1.37387739120017      -1.35726832635458      -1.06143503328603
H         1.67494667683010      -0.52736037034079       0.98859703999889
H         2.47990220537625       1.00664524263541       0.58605146149223
H        -3.11797163854509      -1.58234867798126       1.43936014853406
H        -1.69857325990128      -2.57498080951205       1.05287650065113
H         3.58475858564355      -0.04454362194792      -1.34664242473515
H         2.64454152093648      -1.52965912848321      -1.10917351161561
H        -4.29012687642570      -2.44064034552535      -0.57282913975040
H        -2.84091776916646      -3.33816761905282      -1.05452621645048
H         4.78410049534948      -0.42248517933935       0.76733788320809
H         3.68456662232760      -1.74333147369104       1.19880127083879
H        -2.96829958971233      -4.71682932765549       0.99411366801179
H        -4.39494752802815      -3.81949825666256       1.53782548629912
H         4.44997878961992      -3.07103723499088      -0.73515106364614
H         5.55576910380386      -1.77371994448561      -1.22129903333102
H        -4.99706570535125      -5.99504516746223       0.44348270232203
H        -4.23056612951216      -5.44431560330870      -1.05560119568537
H        -5.67215224058037      -4.61757273787572      -0.44301879543353
H         6.79424929034686      -2.02053895806128       0.94108404715734
H         5.68675337299251      -3.31593909145159       1.42463576213691
H         6.76214870207163      -3.54364491881823       0.03707186309879
C         0.99290582390528      -3.44486104405530      -0.34003364974387
O         0.47688837356816      -2.38621089799632       0.05112790608320
O         2.04751538961308      -3.67233445730280      -0.90628148833615
C         0.05746743224373      -4.73192537204680      -0.06448555639848
F        -0.92316383324024      -4.81892652019995      -0.99385871705089
F        -0.57098985722837      -4.64684685507870       1.13062736114427
F         0.70980664712370      -5.89838033719981      -0.07718887848287
