30
C6H14F2N2O4S2 optimized with ForceField in AMS.
N         0.58732101923548      -0.00817610000999       0.00188742683515
C        -0.30686520900963       1.05908321963715      -0.52449073583266
C        -0.30236027928390      -1.07515757450675       0.53708186114103
C        -1.72008404377377       0.74054891928891      -0.07235869537511
C        -1.72051937254304      -0.75557429205875       0.10143027942373
C         1.45431591817275       0.52876347181488       1.07763834928650
C         1.44383188297376      -0.54528984342488      -1.08212548061667
H        -0.30740742134154       1.09106944472489      -1.63938506385225
H        -0.01967309825916       2.07957482489620      -0.18077612155831
H        -0.29086780235488      -1.10787099721596       1.65179586405789
H        -0.02026984635194      -2.09542801893675       0.18880242126510
H        -2.47502616856254       1.06142143669035      -0.81987941167934
H        -1.92421128105774       1.23386009734905       0.90383489043631
H        -2.46988056165424      -1.07985257927050       0.85588982733626
H        -1.93433526476288      -1.24629976119085      -0.87414458288337
H         2.14317385862790       1.30832886436261       0.68175759145780
H         0.84410324016309       0.99123251951943       1.88605702459349
H         2.07033813591393      -0.28025853320405       1.53039925896536
H         0.82568281821056      -1.00418700613400      -1.88652612907047
H         2.05853951840688       0.26286519181048      -1.53828987579448
H         2.13359547042468      -1.32763356979929      -0.69343151223393
N        -6.20470036080014       1.18079091132350      -1.82471708550918
S        -5.60483855634704       2.64434968946785      -2.24565130369318
S        -7.75225302317763       0.77029132980076      -2.16503106425816
F        -6.20660478400353       3.80937958351009      -1.20488841269438
F        -7.89316474248730       0.45050512351338      -3.80243508240035
O        -4.10645252006175       2.62388268813601      -2.15276619477939
O        -6.01946180504541       2.98408429503791      -3.64955067906655
O        -8.67301540177501       1.90406031029890      -1.81061795157981
O        -8.13343817947596      -0.45524555163060      -1.38469652312105
