25
C5H12F3NO3S optimized with ForceField in AMS.
N        -0.00067588024889       0.00923593118504      -0.00217820410983
C        -0.91605029434725      -1.10274847368630       0.33907157520973
C         0.66510716375368       0.49478912638267       1.22752869014695
C        -0.77216548787283       1.11350945980721      -0.61515620422439
C         1.01995903711186      -0.46886363510252      -0.96128911327473
H        -0.36158028047625      -1.94657577731652       0.80780046582605
H        -1.69960042649226      -0.76920305859739       1.05585304008706
H        -1.42696843760010      -1.49235129335796      -0.56980461513445
H         1.36257243162844       1.33199201063877       1.00044025205469
H        -0.08177279511679       0.86319001644734       1.96624387527901
H         1.25263155504406      -0.31754641279593       1.71110830500944
H        -0.10701134545831       1.96596901263043      -0.87941079104400
H        -1.28106831720949       0.77588913610602      -1.54583763894669
H        -1.55237572430059       1.49130480843995       0.08294301939662
H         1.73705796361476       0.34231652166865      -1.21975956875001
H         1.59935077782634      -1.31656158941778      -0.53617258509792
H         0.54704909770669      -0.82299672060184      -1.90444195853243
S         5.10674226115458      -1.72855182772629       0.66919406489944
O         5.27274066071009      -1.96863026071074      -0.83861467117796
O         5.86617826470194      -2.90716293380291       1.29539459223901
O         3.63697491895341      -2.09254162723843       0.92114578470146
C         5.60849974891507      -0.08477053421862       1.25503224277249
F         4.87077242785484       0.88391871938910       0.60234272340937
F         6.95162022585410       0.10798273189852       0.99534944940168
F         5.38628330559290       0.00809997477955       2.61526127615943
