64
C18H26F18NP optimized with DFTB in AMS.
N        -2.99545739461629      -0.00921456729261       0.53747376262847
C        -2.73060134421436       0.12631463923857      -0.93143962276960
C        -4.35786879693445      -0.63749417054680       0.56887101471490
C        -2.00095668536987      -0.93911360045551       1.17835403294955
C        -3.30195272962882      -1.14203524203153      -1.56379162742374
C        -4.35386892337940      -1.65234557486057      -0.56741668879646
C        -3.00625515156109       1.33741949455433       1.19578624145922
C        -0.57402868766085      -0.39995662642925       1.24931669310951
C        -3.36506177654515       1.29024624810870       2.67309334686838
C         0.38452581946874      -1.55008162597546       1.58515598851744
C         1.82132140084720      -1.04389861864714       1.73719915609592
C         2.77125934537720      -2.19206831411560       2.09311043013179
C         4.20694339833525      -1.69649301060121       2.25500344734260
H        -1.66463253282872       0.26058282032933      -1.11001026147679
H        -3.26524595864474       1.01249672025067      -1.28113353573584
H        -5.09027090307322       0.15337537648883       0.39292360145550
H        -4.53427583196273      -1.09169988863114       1.53931446963817
H        -2.02685053586656      -1.86843602483953       0.60728456492871
H        -2.36531033400716      -1.15224216194169       2.18257570406953
H        -2.51759987974244      -1.88529485118621      -1.71889443082691
H        -3.74290534440013      -0.90727221471854      -2.53400807087271
H        -5.34507623147652      -1.71299094520826      -1.01795160152335
H        -4.09239013734474      -2.64339924541637      -0.19310609081555
H        -2.01726177526408       1.77794075420138       1.04944745261747
H        -3.73767915108697       1.94470308715191       0.65550378091361
H        -0.27126984676088       0.05065255753124       0.29942143371671
H        -0.50075799781208       0.36794864792379       2.02445702180905
H        -3.38557034013974       2.31438902317844       3.04457225463188
H        -4.34640513731731       0.84739633970348       2.82846945737746
H        -2.63374814364242       0.73026638517980       3.25163038839030
H         0.33995449497693      -2.30175282137302       0.79012969574946
H         0.06588466507159      -2.02730881096874       2.51502644436691
H         1.85684365349011      -0.28257784135196       2.52398363624776
H         2.14560433309328      -0.57348381071865       0.80206525961707
H         2.43963671805764      -2.66015217404189       3.02553293048812
H         2.73386815759366      -2.95186600933497       1.30530929370486
H         4.26738136318387      -0.95311099992632       3.05104952454926
H         4.86233729907218      -2.52996520759987       2.50775143282693
H         4.56264049743103      -1.24291459201513       1.32864901802910
P        -4.66410510604110      -3.57166517716131       3.77672571220539
F        -4.13795058361015      -5.04340459573218       3.18478315706548
F        -3.71246146481050      -2.78886134588747       2.56159408023552
F        -5.60180675881059      -4.27719558599318       4.95787452706334
C        -6.16950286858446      -3.70500928043423       2.52536421520562
C        -3.11670082703212      -3.66316504120700       4.97969380588858
C        -5.19032462753794      -1.71103364302865       4.34387002820812
C        -6.53756298918370      -5.10651889361626       1.96894525817326
C        -1.71558402443497      -3.31061057400482       4.41574533725166
C        -6.08896430295376      -1.40518756762671       5.57179882908854
F        -5.98145998855626      -2.93068697212207       1.42602953079668
F        -7.26417220245070      -3.23394165780032       3.14504575102373
F        -3.02945446237418      -4.91795184292625       5.44507155059500
F        -3.30258766242558      -2.86405119636891       6.04645712835469
F        -5.80243459146468      -1.09838861599925       3.29523068638753
F        -4.04105559906270      -1.01405315899247       4.52644965254577
F        -7.72145556008588      -5.04873871356016       1.35014371712499
F        -6.62092871686013      -6.02213755330435       2.92255516496644
F        -5.63834605247622      -5.50194273904725       1.06780671378597
F        -0.75988825038646      -3.59648204216192       5.29712709686637
F        -1.44045530794624      -3.96955734398466       3.29225185675160
F        -1.62124037025672      -1.99909781205308       4.14293844011139
F        -6.14105190094758      -0.07988905958358       5.76293670875030
F        -5.62640780232469      -1.95708518123221       6.68499059367700
F        -7.32968759720077      -1.83388891658422       5.37471143437238
