40
C12H25NO2 optimized with DFTB in AMS.
N         0.10706444912322       0.15550389859523      -0.11327581704292
C        -0.99774523262429       0.44216202024983      -1.08134391172648
C        -0.23249793121412      -1.08784302245051       0.65081021998207
C         1.36381293841747      -0.07876522555911      -0.93142238987556
C        -2.35112091627927       0.59423011799551      -0.39882358696382
C        -1.59992363063905      -1.04212605724539       1.32684551302071
C         0.33453962904540       1.29314471651143       0.85630785439608
C        -2.70949439229626      -0.69582068359991       0.33607861362451
C         2.44807481305711      -0.91101245927794      -0.25105701431682
C         0.34601400366152       2.67811397990717       0.23106211948614
C         3.71549452077923      -0.84334706299105      -1.10397630888990
H        -1.03870556553669      -0.39817213155977      -1.78054747852233
H        -0.72816175813673       1.34176939077293      -1.63613857991577
H         0.54425430256204      -1.22795246813708       1.40388584085924
H        -0.20008068339022      -1.91838249615899      -0.05995007454127
H         1.77316455555817       0.90823766591119      -1.15801598374006
H         1.05679708774611      -0.56628887798027      -1.86121513886431
H        -3.09465957777338       0.80441135528677      -1.17206931600400
H        -2.34348413392390       1.43594712357538       0.29745480212777
H        -1.59887626434785      -0.32178151990274       2.14864664650858
H        -1.78091977665286      -2.03074063543973       1.75723406880277
H        -0.44597442589865       1.24110145936841       1.61667287370543
H         1.31270533496625       1.10489948484367       1.33257646454106
H        -3.65509399024945      -0.57256673382403       0.86919916804214
H        -2.82862241675260      -1.50914429374139      -0.38739011336363
H         2.66768079097086      -0.50673727632305       0.74076348901961
H         2.13607167448446      -1.95548050189707      -0.14959829363249
H         0.64116889227792       3.37315710611305       1.01673986489830
H         1.08707582969821       2.75026186664175      -0.56210684628101
H        -0.63202751045174       2.97875471281139      -0.14578324107157
H         4.50051497839393      -1.43593251257404      -0.63531870210029
H         3.53132389320554      -1.23329289022378      -2.10689751297398
H         4.05362308653756       0.18998966300118      -1.18009109204059
C         4.89131100878627       2.64445039174890       1.58534594320985
C         3.60938537769576       1.90335528126169       1.13808156526275
O         3.05839383226874       1.17514444811023       1.99412818728693
O         3.23528609364859       2.08176192269259      -0.04133879255772
H         4.78343552461385       2.98206398640062       2.61457549507947
H         5.72627109512690       1.94590719838629       1.53188396645488
H         5.08853378334191       3.48916786550059       0.92816844961626
