47
C13H26F3NO3S optimized with DFTB in AMS.
N        -0.12887673805247      -0.05916188080188      -0.29243114271726
C         0.43391872312085       0.58170782895544      -1.52990644538724
C        -0.74219662951455       0.98565365877529       0.60051426152826
C         0.96806488752845      -0.71219614953726       0.51892409423111
C        -0.57038001479131       1.47100378797210      -2.25323264786302
C        -1.77504615838570       1.84986630606629      -0.10882047931196
C        -1.14407291389557       2.53288792014371      -1.31948524548933
C        -1.13502350106844      -1.08922921484779      -0.65631761391296
C         1.91739808432431      -1.61372681215259      -0.26208327367738
C         3.03866615467613      -2.06341781938021       0.68378717692676
C         4.03760768062066      -2.96659837232272      -0.04492391328113
C         5.19743429951720      -3.40163408417862       0.85954793915385
C         6.14976990298399      -2.25339941160311       1.19274076680757
H         0.76072672561940      -0.22060689314210      -2.19344846632533
H         1.29814377788133       1.17019755406686      -1.22058787851256
H         0.07474092657868       1.61617575422475       0.95977906191945
H        -1.18494461796065       0.46025725986358       1.45004620929753
H         1.54435140578785       0.09277332460761       0.97447108484306
H         0.47040087922042      -1.27560578310008       1.31310133583602
H        -0.03328125794636       1.95237732990705      -3.07446382446043
H        -1.37730772832382       0.87186451441978      -2.68829974879697
H        -2.64514729588804       1.25815700671795      -0.41085446681414
H        -2.11476060474541       2.60089477326695       0.60888499444412
H        -0.34146942001937       3.19727037833193      -0.98718265481062
H        -1.89364026128138       3.12667317198959      -1.84765166878856
H        -0.65242471718279      -1.85828606081148      -1.25593387234806
H        -1.53672469075315      -1.52909661725132       0.25489439402631
H        -1.93986715068404      -0.63528240910271      -1.22861753419367
H         1.39444660611996      -2.48343072554581      -0.67236593662422
H         2.37384725426916      -1.05869934401943      -1.08365216802365
H         3.54704078709006      -1.17002571537239       1.05709899338600
H         2.61114828216454      -2.59697726558794       1.53967459486307
H         4.43502029097398      -2.43789673050846      -0.91804127003885
H         3.51552462499429      -3.85995866319803      -0.40577641754429
H         5.75757085398242      -4.18989130178112       0.34545216662345
H         4.79760574200593      -3.82889005860940       1.78580484963968
H         6.54378918708780      -1.80754317198442       0.27861162626368
H         5.64260538445677      -1.47707722607637       1.76555684344407
H         6.98530457818663      -2.62746953708942       1.78501663521016
S         2.67945625993252       2.35295600698390       0.54035146664671
O         1.86095244849951       3.16355686197440      -0.34896838061085
O         3.29536758090696       1.20284099913711      -0.10985426961422
O         2.02711593478833       2.02860439018420       1.80301251527872
C         4.09649762823546       3.44095259063581       1.00711233461472
F         3.66393465169056       4.52315402439308       1.64073927338984
F         4.76360432853146       3.82481556011271      -0.07379438420138
F         4.93273790691742       2.79095751627460       1.80744444267392
