55
C17H36ClN optimized with ADF in AMS.
N        -0.53109989671944       1.72136263062780      -0.08673142374812
C        -1.36905463454746       2.29663900077705      -1.22161719966622
C        -0.22699510693305       2.83358179236325       0.91163125282137
C        -1.22645042338599       0.58973837942401       0.61916620242281
C         0.77568356560824       1.27290403229116      -0.72012761720643
C        -2.63451921674105       2.97701665215312      -0.73388070622461
C        -1.47792691047721       3.54014724592130       1.40833878432918
C        -2.28589036784657       4.10356420372629       0.23995009274736
C        -1.50240649853948      -0.63327111670412      -0.23320475374510
C         1.75663381959195       0.60793449810802       0.22346204126510
C        -2.23257982017201      -1.68926464980617       0.59165554221758
C         3.05455991643840       0.31565076129903      -0.52886643117404
C        -2.53645874194599      -2.94732518587002      -0.21257077346642
C         4.10619456403885      -0.34183007261130       0.35726630003484
C        -3.26728528975072      -4.00819037951606       0.60439595648627
C         5.40449139081914      -0.63780156890384      -0.38756293709887
C        -3.56816777239855      -5.26494923665253      -0.20638686867327
C         6.45592759980809      -1.29164421196368       0.50451452678611
H        -0.69088340878569       3.03956033323330      -1.70096638109753
H        -1.56904887333329       1.46779500738651      -1.91484336878932
H         0.32932064417716       2.36668625235677       1.73616098072056
H         0.41803107933915       3.54178122516080       0.34389764295510
H        -0.59007204001528       0.32330422770999       1.47743290268934
H        -2.16732343357320       0.98981979432543       1.01908043551357
H         0.50201530530281       0.59680128441122      -1.54492407256277
H         1.19615118309432       2.20810143403029      -1.15544009290213
H        -3.14138021407345       3.37972109775012      -1.62652894817899
H        -3.33778963240944       2.25931189144250      -0.27075173218509
H        -2.10388016380655       2.87659334565885       2.03379284206204
H        -1.13229268932628       4.35431063473689       2.06709061051787
H        -3.19858448766435       4.60102600687470       0.60421855664689
H        -1.66583569385863       4.84835570534553      -0.29178939386335
H        -2.12162425036965      -0.36819978378596      -1.10651381378726
H        -0.56175365407891      -1.06124406465455      -0.61827578619069
H         1.36045834167254      -0.33618176147548       0.64149666109078
H         1.99167264114727       1.27379932078276       1.07086506617363
H        -3.17691051625482      -1.26447962538917       0.98066645418853
H        -1.62151613493475      -1.95572324285371       1.47445105390406
H         3.44762539263527       1.26316523848473      -0.93931608292483
H         2.84189925188919      -0.33908331088258      -1.39490658946898
H        -3.14535345720436      -2.67809599671193      -1.09638670151460
H        -1.59100977983057      -3.36893663686852      -0.60351980484100
H         4.32127262707666       0.31799389936312       1.21926428974362
H         3.70173154422443      -1.28278138840275       0.77837636603868
H        -2.65454370873632      -4.26689658540495       1.48758543838047
H        -4.20770647086444      -3.57688255819519       0.99436088775934
H         5.18313096229331      -1.29258156599376      -1.25049935530126
H         5.79923059845633       0.30539618542622      -0.80709021065794
H        -4.09409279549257      -6.02040846005661       0.39561318557822
H        -2.63665066099969      -5.71805734832427      -0.58248016651601
H        -4.19903157861547      -5.02514164699689      -1.07763737358672
H         6.70651345095242      -0.63767154454541       1.35556024032282
H         6.08346803752145      -2.24511998782625       0.91387995457454
H         7.38503958437119      -1.49981087521486      -0.04693139629462
Cl        1.12213619592704       4.47570743713979      -1.64106497300452
