55
C15H20F18NP optimized with ForceField in AMS.
N        -0.05707527113817       0.24622855243505       0.16180102145820
C        -0.97626419873338       1.23946935886753      -0.48096855705015
C        -0.49997037119384      -1.14777059924263      -0.15007057409143
C         1.30567620100775       0.48877332226876      -0.41911529624037
C        -2.46951667011277       1.01197646586863      -0.17966712182764
C        -1.97837545193637      -1.41369163033860       0.18316342481141
C        -2.88361351719343      -0.41347600464469      -0.52581039797065
C        -0.01572268273690       0.47292947759611       1.63233172082751
C         2.44228407299116      -0.40493222875695       0.13542133032779
C         3.76928043758283      -0.07881068296614      -0.54654080450961
H        -0.86369399510260       1.20834567783041      -1.59002445894881
H        -0.71307864138786       2.27545687838109      -0.16682228867057
H         0.09730562121204      -1.89181557201116       0.41969083378315
H        -0.34832612110574      -1.36775528364377      -1.23198851664407
H         1.60240881379432       1.55106095612049      -0.25359320463918
H         1.27721614676928       0.34471761611567      -1.52445136280629
H        -3.07064836117678       1.71676323703812      -0.79336783737608
H        -2.70448452792200       1.23395905142088       0.88169242359919
H        -2.14615396796023      -1.36991463503943       1.28020904144434
H        -2.24604343024083      -2.44004457971341      -0.14949989655517
H        -3.93724647587198      -0.57989887538239      -0.21425535228748
H        -2.81997618872655      -0.56552064703397      -1.62594407820214
H         0.54882102262340      -0.32921476203903       2.15351096023273
H         0.45699092770031       1.45101540543546       1.87401708455446
H        -1.02441207494072       0.47448072375453       2.08822295441357
H         2.57766287896216      -0.24091767529073       1.22397001655777
H         2.22763931859195      -1.47748702729919      -0.04524448518532
H         3.69753750010407      -0.26149052065941      -1.64001097987948
H         4.04463907554645       0.98273044948480      -0.36943490026440
H         4.57036624132160      -0.72630997301181      -0.13172683109522
P        -7.80866600636072       5.23326870271429      -2.29069355796068
F        -7.74745838667906       6.26664129849350      -3.66692564255315
F        -7.57494286293981       6.10978686593735      -0.82482283548018
F        -8.35455275558411       4.21305524536627      -3.56361209246925
C        -9.48584966453278       6.19013765797619      -2.10855316296710
C        -5.93223113443257       5.53756712380730      -2.65917868621869
C        -7.80300670776223       3.49922625167114      -1.43636985868747
C       -10.50472110285778       6.08450169506913      -3.27585606938187
C        -4.91397816123719       4.96751870301444      -1.64885164193762
C        -9.16968815276794       2.89499108759754      -1.05753936851262
F        -9.21681758000093       7.54425198267306      -1.94976978534009
F       -10.13151677272193       5.77704971919504      -0.96044892819225
F        -5.68249428593822       6.90596615999390      -2.71371139012134
F        -5.62517655751861       4.99030884566128      -3.89708304791124
F        -7.09270462015337       3.59148948451326      -0.25296282900798
F        -7.14270983882131       2.58120735175356      -2.24185595865902
F       -11.68211033806466       6.70234678858160      -2.89218988254385
F       -10.80425993333733       4.77823659313815      -3.59689850453285
F       -10.04679272031129       6.73078562999755      -4.41020967680685
F        -3.65154455301171       5.42424678735930      -1.98628902356949
F        -5.18349632100477       5.39127532413737      -0.36097854995212
F        -4.87622033818976       3.58859351778577      -1.69093588390147
F        -9.71533680037583       3.55563566611097       0.02653038077064
F        -8.98637954344828       1.57448649929881      -0.68682207206817
F       -10.05629679287494       2.91504746660900      -2.11111483556137
