20
C6H8BF4N optimized with ADF in AMS.
N         0.62993246789356       0.04603144028469      -0.15846733888425
C         1.17727667575683       0.65286267199154      -1.23171979257962
C         0.94007625136746      -1.23115865183619       0.15101806393047
C        -0.16741569197540       0.82700087061107       0.80038399407770
C         2.02915466934582      -0.03853679999985      -2.06842260632265
C         1.78499399310472      -1.96276448769162      -0.65661264102093
C         2.34524343675542      -1.35975085386637      -1.77648239586814
H         0.92457328497062       1.69984658449495      -1.37349982786842
H         0.50318352563349      -1.62155818424501       1.06678858952056
H        -1.03208505721390       0.22872165479287       1.11023530293936
H         0.49392702586850       1.05503069114207       1.64777377796259
H        -0.50265780221737       1.74940618062488       0.31729866863826
H         2.47152219313701       0.48023966011653      -2.91749578466443
H         2.03035583440547      -2.98586548074710      -0.37527011959138
H         3.04994304652803      -1.90826099685986      -2.40213414353722
B         3.39055808044894       0.78834348053517       1.32027924052884
F         3.97077358422123       0.01885593030933       0.27624759576408
F         2.45486129397579      -0.05113159572761       2.04462854280340
F         2.62383900427179       1.86250160359693       0.72872868655787
F         4.35337620882199       1.29661095087357       2.19000584471391
