29
C7H13F6N2P optimized with ForceField in AMS.
N         1.11167233884537       0.31630707373089      -0.37882708827031
N        -1.11204579080940       0.33774744176724      -0.38057934596084
C        -0.00524373234327      -0.24418568077325      -0.88287342503957
C         2.49156275814546      -0.07307669442476      -0.65848250804592
C        -2.49841697617971      -0.02838555235499      -0.65930802663891
C         0.69802816928402       1.29023872517718       0.45732477189256
C        -0.68132870774543       1.30354755622967       0.45616152560411
C         3.12204269850872      -0.71658573444270       0.57193048169328
C        -3.13412259050040      -0.67305799684685       0.56775689626629
H        -0.01263087029570      -1.07208280372438      -1.58116060094170
H         2.51906629125185      -0.80124774585622      -1.49851090880240
H         3.07750268763458       0.82247597549757      -0.95777301132839
H        -3.07193272816811       0.87824861308556      -0.94927404874835
H        -2.53913637764988      -0.74904550971018      -1.50524264456360
H         1.34987892626787       1.93388444828956       1.03344059911276
H        -1.32139369940525       1.96004787848310       1.03102041411986
H         3.13770209506883       0.00196361738095       1.41858547124058
H         4.16458364303232      -1.02100220415377       0.34315514721060
H         2.54139826935606      -1.61624844798738       0.86800135016832
H        -2.56238689851291      -1.58048117499501       0.85762488257890
H        -4.17989898123661      -0.96566418071930       0.33832610647792
H        -3.14123526091583       0.04046051866015       1.41875472379991
P        -1.02186455700792       5.56456023626582       0.61833072060708
F        -2.22947490218600       6.77455089703953       0.44255258157207
F        -1.96365320295645       4.67783752250793       1.74971657179809
F        -1.73942143299236       4.50955799917370      -0.53313265729935
F         0.35606429007278       4.56095453578094       0.83103463306517
F        -0.17446942811230       6.34133328857751      -0.65911618091055
F        -0.37577947155032       6.52666618304152       1.88734039564236
