61
C17H29F6N3O4S2 optimized with DFTB in AMS.
N         2.76080591179901       0.18796350280558      -2.07907541587671
N         2.50790405822369      -1.94371985816981      -1.94341491890193
C         1.52609400208786       2.19762289545530      -1.43516615803509
C         2.90682658472709       1.58242862868458      -1.68095641040742
C         1.35408567365565      -3.43049023713620      -0.37311889706396
C         2.48722442959335      -3.29272837491746      -1.39004296251877
C         0.77727294479899       1.49900330407906      -0.29622611603511
C        -0.01023567279692      -3.07891613379222      -0.97582699413927
C        -0.62681512408204       2.07935948944447      -0.10390275359086
C        -1.10738400114990      -3.08339111272806       0.09277498144908
C         2.77080926157361      -0.84478147509975      -1.23938828335915
C         2.51661768086028      -0.26439465166785      -3.34831275792207
C         2.36339593439493      -1.61181596468685      -3.26133806242347
C        -1.37928659099008       1.33311671259292       1.00259544581512
C        -2.45627786013293      -2.66058928362990      -0.49774956652452
C        -2.80087759265015       1.86559551810043       1.17052404629289
C        -3.54298918052824      -2.61082746286559       0.57461529310231
H         1.66915742516321       3.25368049820876      -1.19101891349101
H         0.93766445690432       2.13913549256995      -2.35636884569848
H         1.55621313154197      -2.77577368925969       0.48054876553921
H         1.34743851944173      -4.46156674164203      -0.00979124334837
H         3.42546114112724       2.10974670395167      -2.48425943292275
H         3.52183468139611       1.60862462201412      -0.77787408309558
H         3.45724567529507      -3.46710185955426      -0.91581733121409
H         2.37194358178212      -3.98881264209115      -2.22289509466568
H         1.34961285420717       1.59932875700665       0.63179899685632
H         0.69028347243653       0.42960355731723      -0.52052374118677
H        -0.25804574468931      -3.79452430332079      -1.76659861750195
H         0.04120907810924      -2.08343847767876      -1.43138660982988
H        -0.55377381343787       3.14141831823560       0.15170223045210
H        -1.18415789526869       1.99858902333116      -1.04364677915843
H        -0.83013635902320      -2.39234924386867       0.89670076712861
H        -1.19246335792109      -4.08469537084075       0.52732195041561
H         2.99954300248512      -0.79729039731860      -0.18901183550833
H         2.48891662739127       0.39740811312415      -4.19577512917684
H         2.18791286665587      -2.35594550099554      -4.01791554143284
H        -1.41831458567081       0.26589131881920       0.75719670390331
H        -0.83512342364985       1.43775645522102       1.94707861678070
H        -2.74816246468497      -3.36696382430588      -1.28198714722690
H        -2.35586254803962      -1.67169623443302      -0.95895814760632
H        -2.78430363886708       2.92397129352632       1.43342340487546
H        -3.36544663959779       1.74627032364930       0.24473434174081
H        -3.31263059735211       1.31842431788109       1.96238338904133
H        -4.49187908871863      -2.30909151933163       0.13096458755728
H        -3.27918316295221      -1.89270406376784       1.35238243771797
H        -3.67038790150147      -3.59090772415400       1.03592484857313
N         5.25992689030788      -1.65705131934826      -1.45243158901130
S         5.87566851867555      -2.50522446286314      -2.67313494305679
S         6.10245300445943      -0.43419303418465      -0.85057029586381
C         7.21499274019433      -3.62228743737690      -1.98563472400305
C         6.39097571901959       0.85947073908807      -2.18831932858466
O         4.82232159819056      -3.41888518903026      -3.06652332682737
O         6.50342703471613      -1.71426962484299      -3.70181435266969
O         7.41055673571062      -0.76739324239339      -0.35405094002024
O         5.17683610603594       0.23829477034613       0.04403298400659
F         7.30051617615641      -4.70312990577317      -2.74460436755930
F         6.88808135415655      -3.99139527263645      -0.75557891265452
F         8.38050705894795      -3.01260778364603      -1.96810204229001
F         6.33411813006150       2.05797632508135      -1.61768008507278
F         5.41242606277741       0.80447809760256      -3.09412241551545
F         7.55078342424365       0.72281378421489      -2.78490520525634
