61
C17H24F18NP optimized with ADF in AMS.
N        -0.71632552564124       2.45249301447114      -1.29044340582297
C        -1.66750465207087       1.43733742378116      -1.90692226593814
C        -1.66843153498112       3.51537392921783      -0.76023861255111
C         0.03947709842047       1.84213455564695      -0.12780504412256
C        -2.88186208534220       1.39767088118341      -0.97988384790628
C        -2.86808506472861       2.74457352803255      -0.21286599509913
C         0.20418072612653       3.01282543071467      -2.35597758973462
C         1.09246707725763       0.81161468763773      -0.49731232846264
C         1.16025445388277       4.06958620248448      -1.84555223984195
C         1.67515676093756       0.16110786962592       0.76160298547172
C         2.76184188673895      -0.86355179519039       0.43806649582160
C         3.34564811647235      -1.52075271238728       1.68613852591838
H        -1.93696185623774       1.83522056540916      -2.89178108073274
H        -1.14338402924649       0.48148310273346      -2.02671133247544
H        -1.14305214542134       4.13043858125872      -0.01920527285659
H        -1.95457123550009       4.12631732007723      -1.62365379956434
H         0.49719343205990       2.67909997831201       0.41956352955108
H        -0.72278848500349       1.39532069261573       0.52701626416582
H        -3.79197776805448       1.28520274752172      -1.58407641956589
H        -2.83470466707473       0.54529787060519      -0.28534184897969
H        -2.78357161376510       2.57902632377319       0.87154130871302
H        -3.78235665631951       3.32749892893014      -0.39196719170697
H        -0.46261247499631       3.42908661294031      -3.12409898801970
H         0.73660433306152       2.15290017481089      -2.78798294500267
H         1.90942998578071       1.28375990876264      -1.06736513351250
H         0.66446957687042       0.02323900842393      -1.13885504358623
H         0.62610511019174       4.93393724035742      -1.42720002133216
H         1.87306828312045       3.68298324124886      -1.10249271203052
H         1.73939877092520       4.43983033813233      -2.70418564975299
H         0.86557799391923      -0.33069446649374       1.33184174326535
H         2.09359762680744       0.94186151550096       1.42348551618874
H         2.34038866123256      -1.63841142367918      -0.22782853374521
H         3.56732972735755      -0.36748605952907      -0.13323298060627
H         4.12302923395912      -2.25368901469971       1.42334000826863
H         3.80145008236020      -0.77128647420078       2.35250244272942
H         2.56563755260528      -2.04883454390356       2.25765570577779
P        -3.34408312316743       4.78219352024320      -4.78820882793169
F        -2.10836257248652       4.33260521791165      -5.80925477938053
F        -4.02446760846650       5.84153506270633      -5.85091784369290
F        -2.70287082129808       3.68730490287791      -3.63606395446674
C        -4.33544953910671       3.32852286214974      -5.67801739719756
C        -2.06088189940220       6.26903196199041      -4.21357435173660
C        -4.66979404083019       5.27877415598627      -3.32638002849134
C        -3.91809432148030       1.84198937012518      -5.44252006354127
C        -2.45560713757434       7.72704929185088      -3.78519090084642
C        -5.87509577732912       4.44017053703566      -2.78141536264099
F        -4.21749658050252       3.50324463999190      -7.03637296700503
F        -5.68386068163644       3.37704650455977      -5.39855497645952
F        -1.24769404624864       6.51124518314536      -5.29621138568355
F        -1.21896867254268       5.81893389268917      -3.19142926662823
F        -5.21695021497375       6.50470263064014      -3.60824763355928
F        -3.88055087017628       5.43341551015917      -2.18386674141037
F        -4.62485610784284       1.03730695514132      -6.27997527554263
F        -4.18180252037827       1.42100093763222      -4.17401073549789
F        -2.60026418601827       1.62944112938270      -5.67865584403989
F        -1.31017907568359       8.47312539094978      -3.71947980710932
F        -3.26982174145095       8.30002083568040      -4.69428068406058
F        -3.03178846021517       7.80781511134832      -2.56474644510842
F        -6.96933370708492       4.53978137505545      -3.55604607396784
F        -6.22021040817194       4.91182143231038      -1.54437284258547
F        -5.55030914273661       3.13024260431071      -2.62130952943819
