57
C15H28F6N2O4S2 optimized with ForceField in AMS.
N        -1.54201194089463       0.09622137163947      -0.07906009319321
C        -2.55091753229935       0.48981952464295      -1.11590555459750
C        -1.79171412276333      -1.32828119973461       0.31474448047795
C        -0.19586700679104       0.18737109995346      -0.74216582656244
C        -1.61922035586099       0.97443336119790       1.14005734355214
C        -4.01184348497307       0.28847078878296      -0.68064465584264
C        -3.23742306081799      -1.60348976196692       0.77949916518929
C        -4.25207631454487      -1.16156104220099      -0.27175403943532
C         1.02787087764350      -0.12425587528137       0.15490622549196
C        -1.28308343649507       2.45961425459245       0.91674525960919
C         2.32883884698332       0.03765975675271      -0.64410266359808
C         3.55616734264596      -0.30285734216637       0.20864781238910
C         4.84828880298719      -0.10944161116427      -0.59366067418651
C         6.07105044451927      -0.47309657801958       0.24064502704812
H        -2.40496484977372      -0.11920662167772      -2.03920954871592
H        -2.41419960668573       1.54285919368173      -1.43849337348934
H        -1.11871776605733      -1.63560177080502       1.14408581173495
H        -1.58018643427720      -2.01070629538275      -0.54079260810982
H        -0.05351895879354       1.19815474962060      -1.18585610158162
H        -0.15428315142965      -0.51411820677239      -1.60794249439188
H        -2.62904740736853       0.94872233517486       1.59156614967237
H        -0.95299595061391       0.58782369615324       1.94119513539114
H        -4.67780658691349       0.53334432297478      -1.53621353752260
H        -4.28595020132312       0.97848871182521       0.14343069353428
H        -3.44707568121719      -1.10167490298999       1.74701932775306
H        -3.35814600520661      -2.69398835792668       0.95616783346045
H        -5.28091290459056      -1.26689326455660       0.13518165083242
H        -4.16746707295037      -1.81779011214956      -1.16594347382539
H         1.07113439209211       0.56874318361134       1.01934505365247
H         0.97541444661747      -1.16661435028588       0.53119009270766
H        -0.23784838852398       2.60229156892271       0.57843596461274
H        -1.98359632125689       2.93705880809877       0.20409116160615
H        -1.38952520327641       2.99645860134425       1.88306162569792
H         2.41132039887686       1.08846528293838      -1.00048950943763
H         2.30463744717832      -0.63354913001283      -1.53092450709079
H         3.48698505760327      -1.36023297407287       0.54726152725882
H         3.57839216822094       0.35508680115844       1.10560622595060
H         4.82890864737309      -0.75082981871496      -1.50162796367090
H         4.93458939546981       0.95195026371877      -0.91432461181972
H         6.02867992062362      -1.54043527307336       0.54482673671500
H         6.99369511987212      -0.30739283365545      -0.35474812057512
H         6.11222173672560       0.16236541117145       1.14830263969136
N         8.47830071254846       0.91277167634437       4.66670364741804
S         7.25559076151613      -0.17907950781747       4.66683086666646
S         8.66988087353216       2.03973918877750       3.49146755994685
C         7.80240684369269      -1.67191247623365       3.86386788980029
C         7.99924659799935       3.59025064999660       4.05274494286955
O         6.88729825896734      -0.50242962071636       6.08710412587389
O         6.05290197945977       0.36746613077505       3.94885046834211
O         7.97221740928621       1.62276054795356       2.22776588549473
O        10.13599463802225       2.21856341285722       3.21696487851975
F         6.78411544827108      -2.60611073867102       3.88150176468387
F         8.90058458313418      -2.17896394178599       4.53231933287366
F         8.15117613324595      -1.39876893958092       2.55536631998717
F         8.13565962169298       4.53937240918004       3.05754338558624
F         8.68131309159766       4.00694068714904       5.18008245097839
F         6.66031775549991       3.43574120832574       4.35816553817631
