41
C11H22F3NO3S optimized with ForceField in AMS.
N        -0.89191323863316      -0.16456153170559       0.04886468054740
C        -2.02676909628223      -0.27759053081194      -0.91789622419473
C        -1.22538485289374       1.01895769644933       0.90075853280150
C         0.37955017067318       0.08237569209656      -0.70639426633747
C        -2.85001033283250       0.99242625075879      -0.83090644670876
C        -2.64655556154478       1.44705398838145       0.58680740848079
C        -0.81797916672103      -1.39186756559214       0.90637476045295
C         1.64176959584503       0.19676844213193       0.18099454897122
C        -0.46951864687043      -2.68432407793238       0.14561328700430
C         2.85035701148907       0.64400682779175      -0.64916305573588
C         4.10466104380669       0.73817792061799       0.21326763174064
H        -2.71006616093732      -1.12177293868707      -0.66776732625001
H        -1.69639910053579      -0.44499837144709      -1.96875933387758
H        -1.12331691027292       0.81919236444572       1.99233288063492
H        -0.57129109726112       1.89442945005339       0.68280138661216
H         0.55348628707617      -0.72460696331530      -1.45243079099636
H         0.27993899643431       1.01920072017161      -1.30302120029430
H        -2.44676644847316       1.75392736289111      -1.53498679761023
H        -3.92406136053056       0.80816105751364      -1.05254862980241
H        -3.35829384380416       0.91886405643170       1.25951678879254
H        -2.78182514095605       2.54634502760497       0.68786941084012
H        -0.07400695826442      -1.26029344783595       1.72220002299253
H        -1.79296511723182      -1.55254035941522       1.42171019936382
H         1.48184579500733       0.92527910104473       1.00320812500923
H         1.87679777816195      -0.78975581145165       0.63265105382977
H        -0.57026253029063      -3.54858849651845       0.83549927091483
H         0.57870218512399      -2.66878409200284      -0.21503529763000
H        -1.14965329319485      -2.85124046455713      -0.71395967602924
H         3.03122519273198      -0.08585270569574      -1.46832283574151
H         2.65032138655918       1.63965121488371      -1.10167697757617
H         4.31070994782538      -0.24141366901431       0.69350947104622
H         3.97548686867586       1.51073195612082       1.00078498692232
H         4.97331163477679       1.01652905586418      -0.42013346786795
S         8.01070110451566      -1.82103557180024       1.06689964380791
O         7.68332542117201      -2.53928918167363       2.38444408303088
O         6.86944893971113      -0.80439679384060       0.93189766611505
O         7.67172518995542      -2.87066130945751      -0.00199564663447
C         9.67384870917700      -1.11145235923399       0.96082381788182
F        10.61240335115843      -2.11443202238731       1.10597548908835
F         9.83819819441362      -0.17603903236201       1.96412237150635
F         9.83515628864049      -0.50195227841531      -0.26846266810053
