26
C8H12BF4N optimized with ADF in AMS.
N        -0.54172051073666      -0.11678918554387      -0.26259761369797
C         0.92701500297911      -0.08071625250574      -0.46484867541645
C         1.68735015286556      -0.35704684484340       0.82614697253369
C         3.19130944359309      -0.30593640799414       0.57970211451730
C        -1.16805487268890       0.97865015556622       0.21855109076744
C        -1.21314432115997      -1.27550985575657      -0.43627189435534
C        -2.52184824052783       0.96051996228918       0.47447672309490
C        -2.57186608658121      -1.34025911868947      -0.20310385062361
C        -3.23749264983719      -0.21393210852205       0.26127425986329
H         1.16085765859313      -0.82865593083366      -1.23805257194816
H         1.16808718009083       0.91167769928746      -0.87823484629116
H         1.37150352717424      -1.33486689451978       1.22188595266966
H         1.38228367508096       0.37478328023962       1.59075837916199
H         3.50800892864903      -1.06281608585895      -0.15635549335099
H         3.73227666289084      -0.50449217631103       1.51556914376506
H         3.51138339875040       0.68160842759675       0.20871189328423
H        -0.53887400442214       1.84673716437062       0.40092018762676
H        -0.62421074198284      -2.13058167833537      -0.75599160953361
H        -2.99543178939918       1.85012834867454       0.88689989196680
H        -3.08337754765723      -2.29340387017902      -0.32713417124008
H        -4.30193110442495      -0.26132109307314       0.49142794052760
B        -1.18074093459539      -1.46272695225376       2.92804211575653
F        -0.78256896346632      -1.90784303316819       4.18954641876616
F        -0.57745879617736      -2.29570677526732       1.90402376112480
F        -0.73898270537871      -0.11033083757616       2.71362426912175
F        -2.59326106253131      -1.51173678289276       2.76500310070942
