36
C8H20F6NP optimized with ForceField in AMS.
N        -0.00455947922762       0.00029260528058      -0.00190313582746
C        -0.85261269413487      -0.26130252244055       1.21371537208709
C        -0.85160386730629       0.25674395051227      -1.21884858523529
C         0.84830079303273      -1.21356349388735      -0.25962464653421
C         0.83739531525877       1.22011593712446       0.25782696240990
C        -1.90665386208132      -1.37690709738743       1.07184403861672
C        -1.90994818651992       1.36929153376661      -1.07905894948876
C         1.90910388603132      -1.06951633491487      -1.36943104233026
C         1.88464614330116       1.08282329865788       1.37730294551570
H        -0.21531636185829      -0.55778845092158       2.07448264016931
H        -1.37552458310494       0.66506548936252       1.53913985231959
H        -0.21379690017311       0.55341985887279      -2.07909207420423
H        -1.37099547131902      -0.67191692280303      -1.54298259965344
H         1.36712836802071      -1.53922775310194       0.66899216232623
H         0.21453731825011      -2.07590536380655      -0.55840709000587
H         1.36445022921430       1.54272982157091      -0.66727378817810
H         0.19773440676126       2.08014417571516       0.54988271230062
H        -2.46599341298900      -1.45960530050196       2.02760854916108
H        -2.64773532533271      -1.15675059867084       0.27932343298811
H        -1.43740774028058      -2.36311444596725       0.88656061339528
H        -2.46914142113732       1.44952958516498      -2.03493614324311
H        -2.65029289833221       1.14801763260897      -0.28607584126492
H        -1.44517514190843       2.35786033341883      -0.89499659417809
H         2.47022080969509      -2.02456417820660      -1.44989442320468
H         1.44536839344622      -0.88464512439263      -2.35836134140042
H         2.64902966364177      -0.27673506675911      -1.14518956643646
H         2.45556574142537       2.03222503690616       1.45276922013484
H         1.41431879583124       0.90730334471228       2.36451380198532
H         2.60973572626518       0.27862679281149       1.16165108958814
P         5.75024414309052      -0.01421206422800       1.74975607889550
F         6.48874409516085      -1.17660300155670       2.77595740317978
F         4.57992306050975       0.31817771701181       2.96286681880022
F         6.77037853954224       1.19620767773843       2.41604580481135
F         5.05745538619397       1.16209246036321       0.70694607162713
F         6.94213362122425      -0.34977825007669       0.55980254334708
F         4.73835220300881      -1.23353670637627       1.08511415862630
