35
C9H17F6N2P optimized with ADF in AMS.
N         0.69348470875768      -1.63179898357565      -0.70930021191707
N        -0.94812563624981      -1.08177034145779       0.59889066212186
C         1.98945365244507      -2.16520967511869      -1.16583674556707
C         2.83392816970613      -1.09794219800343      -1.85459618224225
C         3.14366098235561       0.09859765402993      -0.95874079932654
C         0.23352698787535      -1.70860900209818       0.54592778616264
C        -0.21241125147825      -0.92649346757344      -1.47638029387316
C        -1.24280775345948      -0.57749629892344      -0.65241176361873
C        -1.73275365622644      -0.86317213004453       1.82711174122230
C         4.03955365270015       1.12212120138745      -1.65010414756901
C        -1.65707505778050       0.58347499304618       2.28739071053852
H         2.49692693157626      -2.52838160976713      -0.26166732832185
H         1.78036341821140      -3.01567855331934      -1.83367309176743
H         2.34250674456705      -0.76764116524571      -2.78874611531809
H         3.77108330460484      -1.59308448258898      -2.16621565773163
H         2.20409314526667       0.57988462328675      -0.64092616269131
H         3.61802867989806      -0.25368241975354      -0.02846199857928
H         0.76136582867937      -2.13651378607534       1.39341773446013
H        -0.04859874049512      -0.73164182691219      -2.52849048412005
H        -2.76340195161336      -1.18360868651310       1.60817240310015
H        -1.30407595781118      -1.52989202324192       2.58675658996408
H        -2.15009761194186      -0.01967538845881      -0.84955195946953
H         3.56852962705480       1.52036146282683      -2.56399440613130
H         5.00517105462179       0.67540822629913      -1.93737073348413
H         4.24688147808548       1.96806271886350      -0.97868331659958
H        -0.61285248510579       0.85565578557110       2.49382114448594
H        -2.23981289687830       0.69291458038547       3.21332291471898
H        -2.07631369563940       1.26900806656427       1.53543671627977
P         2.40954105854104      -0.48794106622634       3.08694271515831
F         2.81901609214329      -1.68928452066164       1.97196634258209
F         1.57165004993773       0.29719205145573       1.86096641394022
F         1.00355116862853      -1.36302291523469       3.41034563878415
F         1.93297836979605       0.67077175964591       4.13961222569371
F         3.19351122043953      -1.30976785095929       4.25666659267244
F         3.76130446468761       0.34247717009090       2.68260319484273
