26
C6H11F6N2P optimized with DFTB in AMS.
N        -0.85191980690166       0.28645831506926       0.11607878958266
N         1.24237958748155       0.76881528230968       0.02369987208718
C        -2.26992494915201       0.25700294383536      -0.23632339450168
C         0.11436524997445       0.73396665195594      -0.67855969251726
C        -0.33317480029332       0.04402998748181       1.36076667528803
C         0.98996488160686       0.34634480215505       1.30168185000950
C        -3.00280512661981       1.39489261825020       0.46626710785876
C         2.50439849038178       1.30270612939192      -0.46218080997076
H        -2.33773933095552       0.37315315991209      -1.32015735973672
H        -2.67508373436166      -0.71694455525900       0.05447522827680
H         0.00162015960923       1.03677206913097      -1.70471450994523
H        -0.93799221793699      -0.32082123763170       2.17240011348309
H         1.75932422199427       0.30123809313754       2.05253952111283
H        -2.93759677648691       1.28494519338458       1.54824011774284
H        -4.04998906743968       1.37511453304107       0.16848840538315
H        -2.56968183554834       2.35099032727120       0.17779629683148
H         3.23361499900725       0.49724937408345      -0.55516398089392
H         2.32829044201052       1.76955988736541      -1.42956542899340
H         2.86470643334447       2.04922852092177       0.24494006757500
P        -0.63642444882407       3.85953105672155      -1.63257604707418
F        -1.98949978261107       4.55774137429755      -1.04773270947106
F        -1.53588765712086       2.49928326597792      -2.05577504693592
F        -0.87982102908193       4.48094357593376      -3.11103539722151
F         0.73186519535943       3.05420545881742      -2.18654182157950
F         0.28372088813591       5.12325193633794      -1.18485378933436
F        -0.37253020937194       3.14388165960724      -0.13309154015579
