36
C10H19BF4N2 optimized with ForceField in AMS.
N         1.90330423314613      -0.94744401836456      -0.22954517527169
N         3.13677964166568       0.89678925676083      -0.09698550846084
C        -0.38242342344133      -1.87701320660025      -0.07802207508732
C        -1.05180931182152      -0.51941278949959      -0.33866852541652
C         0.99530401567536      -1.96964223277890      -0.74795119471898
C        -2.46260018946858      -0.46992477164643       0.25910258472477
C        -3.09909584921931       0.90777112227622       0.03668968710553
C         2.37086383332735       0.12770431170393      -0.89436136160589
C         2.39605913959602      -0.85805482562829       1.02301640000552
C        -4.51006242526318       0.96679843842198       0.61448448707202
C         3.15976059900789       0.28926717700849       1.10549597334929
C         3.78185168034217       2.15600897500925      -0.44573392474594
H        -0.27367088867843      -2.03919409465145       1.01660191161779
H        -1.02471108683599      -2.68952104109490      -0.48291552752160
H        -1.11080167513677      -0.34126410087239      -1.43510150556242
H        -0.43745216468721       0.28777818970428       0.11726282021598
H         0.87778729760064      -1.85372290242818      -1.84791720379223
H         1.43109923560173      -2.97477188614654      -0.56200319412206
H        -3.09301573532196      -1.25098284885686      -0.22091731729543
H        -2.40838898371115      -0.67823223635827       1.35072529716746
H        -2.47828662399834       1.68987895613557       0.52637564545965
H        -3.14716756375491       1.12756472153363      -1.05237457077728
H         2.13637277336724       0.35849118338076      -1.92663948852769
H         2.20163455459014      -1.56500818216361       1.81981859810037
H         3.68094568698992       0.65934323099636       1.97914679030741
H        -4.48812297943546       0.77411328052027       1.70834467183283
H        -4.93915438491481       1.97633240678891       0.44052683625088
H        -5.16120764492164       0.21419236154964       0.12072183793986
H         4.87650514501561       2.07109170613866      -0.28291780748970
H         3.59345958618993       2.40749908037406      -1.51152455432406
H         3.37842720251166       2.97053941520246       0.19190003051362
B         7.59488087880765       2.90484107158852      -2.28121500558277
F         8.48663798279456       3.91594900780141      -2.72789455698917
F         7.64532791378039       1.80077894200142      -3.17320168971442
F         6.27372379392760       3.42374831957634      -2.24463963938112
F         7.97411111397292       2.47980383931726      -0.98006669147585
