40
C10H22F6NP optimized with DFTB in AMS.
N         0.40077013238556      -0.10777675027346      -0.39753585822729
C        -1.00930841584094      -0.24728332094928      -0.88433080412977
C         0.22264924006601       0.10010176602496       1.07720256700494
C         1.06172776458786       1.08120429034322      -1.02902161311212
C        -1.73500627181560      -1.04270139435611       0.20163720202377
C        -0.89273713220443      -0.85811402270095       1.47373840217539
C         1.16881402106621      -1.38091144322760      -0.64032919006580
C         2.48170478827025       1.32597627418485      -0.52332896054715
C         1.49525688624250      -1.65502435042105      -2.09895976636165
C         3.07150216834424       2.56754228043276      -1.20095794552079
C         4.49872300423020       2.81147719275888      -0.71403153691065
H        -1.01931271129946      -0.73078977419772      -1.86051261293445
H        -1.42768090033825       0.75770612974256      -0.97838613612263
H         1.15647427146376      -0.09610733384023       1.59850773391838
H        -0.07620928051724       1.14019135924278       1.22796230540283
H         1.05276622970050       0.92283998620174      -2.11052022072421
H         0.43018204518106       1.94640520536105      -0.80519018473993
H        -2.74808450583163      -0.65686999920922       0.32987201287295
H        -1.80697692223981      -2.09746528334150      -0.07134517802851
H        -0.47292372232609      -1.80801710368701       1.81053638420302
H        -1.48069611497932      -0.43654348067317       2.29047370486028
H         2.08892623810327      -1.31800081689523      -0.06233027681868
H         0.56754574706436      -2.19413018986441      -0.23134031125466
H         2.47382792012859       1.47343825710171       0.55837428124879
H         3.11682118641576       0.46416987234082      -0.73667443309011
H         1.94302818030491      -2.64767812250335      -2.14691919620355
H         2.21833853630919      -0.94116929772925      -2.49031268040686
H         0.61020778147510      -1.64866294249186      -2.73490625480083
H         3.07078384787169       2.42777454092987      -2.28770764195211
H         2.44900185735232       3.44006305312412      -0.97356335302362
H         5.13269134742889       1.95745999865279      -0.95336240229341
H         4.51101670684147       2.95945803879479       0.36602785790178
H         4.91010691433909       3.69907229163496      -1.19465729388621
P         3.68017976782791      -1.31415564044909       2.37324942232545
F         3.35931047838601      -1.43328876841235       3.96357539055160
F         4.28310705736222      -2.82367518803965       2.32045041149175
F         2.14122244694879      -1.92832384481937       2.03069489099875
F         3.92349824172222      -1.15873462822898       0.72033060506746
F         3.00318534317861       0.22241690523420       2.35298924228182
F         5.14508887139421      -0.67020684169522       2.65367090472604
