22
C4H12BF4N optimized with ForceField in AMS.
N        -0.00579395666135       0.00164138685376       0.01677789681020
C        -0.91982224283172      -1.11022646225432       0.35982593078589
C         0.64950618756879       0.50083072012966       1.24570359134870
C        -0.77553900221959       1.09746262577963      -0.61307058151238
C         1.02376992671270      -0.48249980448383      -0.92775182351991
H        -0.36508204260729      -1.95197277897727       0.83224295887739
H        -1.70629114447838      -0.77533109573991       1.07275064030539
H        -1.42795490661093      -1.50426655828072      -0.54912814622659
H         1.34374052893960       1.34012540673635       1.01520023421030
H        -0.10330245058752       0.87081226298068       1.97737641091956
H         1.23938150173074      -0.30428836492483       1.73890979197181
H        -0.11111343630612       1.94929444059411      -0.88228892546517
H        -1.27756201524839       0.74949435894602      -1.54391711612038
H        -1.56105408385444       1.48113253532970       0.07608982585239
H         1.72393413482185       0.33583461397278      -1.20867397674642
H         1.62363984194152      -1.30637714102255      -0.48010319131131
H         0.55489965043903      -0.87007222954658      -1.85881568248329
B         2.51633591342501      -1.04563961562042      -4.25877968421795
F         3.16336422302940      -1.18482393453751      -5.51469344283676
F         2.75200937839678       0.25820395089844      -3.74757131409177
F         3.02967993481436      -2.01013671289631      -3.35112591289684
F         1.11975685698595      -1.24536085663689      -4.42235188275285
