31
C9H20ClN optimized with ForceField in AMS.
N        -0.06095327123950       0.24248610482510       0.16190354185429
C        -0.96860591785912       1.22886951060027      -0.50542902246303
C        -0.48383620576728      -1.15248451465277      -0.17002612127730
C         1.31679257668951       0.49961962467368      -0.37599228619744
C        -2.46637869313953       0.99617922765135      -0.23523582601407
C        -1.96865289670235      -1.43294825973813       0.12388157564013
C        -2.86847938621281      -0.43061782299855      -0.59085963901912
C        -0.06771919196265       0.46332371481832       1.63363842127515
C         2.44539368096097      -0.38193189709230       0.21283774313925
C         3.79513808810218      -0.01881085143196      -0.40290511755153
H        -0.82962520521286       1.19237663027138      -1.61132076289170
H        -0.71577389897503       2.26686472030616      -0.18939539565962
H         0.10755150708491      -1.89385655544472       0.40946824652775
H        -0.30294100664692      -1.36267933580431      -1.24919867750436
H         1.59553430732812       1.56492984952753      -0.20064800757936
H         1.32391257330158       0.35534693399485      -1.48154702586031
H        -3.05827675336567       1.70027868665634      -0.85944633463726
H        -2.72422686240674       1.21691401529537       0.82095240726752
H        -2.16289978095594      -1.40769039523031       1.21702455937931
H        -2.22129648433011      -2.45626203737470      -0.22937767864084
H        -3.92537806782447      -0.60257156574456      -0.29350470634693
H        -2.79163235059980      -0.57712915691315      -1.69078691460818
H         0.49803405396866      -0.32847826791991       2.16789073438210
H         0.37433506531369       1.45124496621458       1.89163783348645
H        -1.08851724838557       0.43730071525760       2.06003460739329
H         2.53371887180854      -0.23493256573142       1.30802572666495
H         2.25686818914074      -1.45490324428007       0.00594513404136
H         3.77137073330328      -0.16578284197459      -1.50239046680655
H         4.04978999942392       1.03947507753739      -0.18095511555276
H         4.58744396372290      -0.66951690736881       0.02362963151255
Cl        3.51583264023734      -1.19563975552966      -4.25643964645375
