42
C12H23BF4N2 optimized with ADF in AMS.
N         0.77211675333985       2.32360814522488       0.79743729131508
N        -0.87274232873874       1.65493105416254      -0.44549527033039
C         2.14064873422239       2.66197975491966       1.22816213886556
C         3.08281091994035       1.47505303393455       1.05881984586858
C        -1.64968011378301       1.21166149695073      -1.61786986650267
C         2.59052290500508       0.20030804125387       1.73759042672905
C        -2.14694051176200      -0.21991771109022      -1.43412622095939
C         0.40624498004495       2.05471957509460      -0.46598968761209
C        -0.28947440692134       2.06927904976529       1.63938953738584
C        -1.32693475183848       1.65238271365877       0.85802572479856
C         3.49628488012180      -0.99042440096259       1.42935938241262
C        -1.00370759445105      -1.21662050195877      -1.26507945424134
C         2.98611246619544      -2.28686241173343       2.05035676986993
C        -1.49051482722668      -2.65303082162840      -1.11984793030905
H         2.05475903528502       2.97273507451255       2.28004747919320
H         2.47362789364809       3.52761026332282       0.63604757756311
H         3.21963918140873       1.28533537673176      -0.01766284838750
H         4.06449027459358       1.77771328583172       1.46575624939623
H        -2.47888861165169       1.92480192679871      -1.75103016890777
H        -0.96396633506772       1.26999287097600      -2.47593138155168
H         1.57798265763440      -0.04229940015797       1.36723120030881
H         2.50957432127875       0.34961897675552       2.83314271651570
H        -2.74164427890432      -0.46830901777037      -2.33188523887020
H        -2.84667004306409      -0.27701246380301      -0.57836376346830
H         1.07017743970170       2.10464138480026      -1.33330835599170
H        -0.21256293465989       2.20073126412374       2.71119745131972
H        -2.33399883420617       1.35149666395147       1.11525243933161
H         4.52041960447464      -0.77618930176882       1.78510647490400
H         3.54730923143397      -1.09717596166650       0.33273633153818
H        -0.32120328688820      -1.12443298890243      -2.12422478105769
H        -0.39815760750222      -0.94048828952377      -0.38496041025946
H         1.97392523578931      -2.51934409123587       1.68130862370036
H         2.93824078546075      -2.21605087805611       3.14956143798197
H         3.63812262131797      -3.13551975760028       1.79369892385491
H        -2.13378569586631      -2.77490735616398      -0.23270906929783
H        -0.63676946544849      -3.33959329095499      -1.01827446027495
H        -2.06959340167584      -2.96773876270214      -2.00289085437728
B         2.22407552560228       0.44365230444743      -2.65595496968037
F         0.96143264948902       0.63544294500050      -3.30863011539713
F         2.70228317366043       1.75778377419518      -2.27062539656308
F         3.13683721650331      -0.20469649493440      -3.47799105865536
F         1.99783725150445      -0.28909649319851      -1.44756459305779
