37
C9H17F2N3O4S2 optimized with ADF in AMS.
N        -0.50838456631855      -1.48853411754481       0.06814497952405
N        -2.50863273935987      -0.64349630450174       0.12881953466812
C         0.94647837274073      -1.65193623109334       0.21789391865482
C         1.71491748889322      -1.06717231394182      -0.96240541955602
C         1.67711099071719       0.45790058632917      -1.01687134065119
C        -1.23581400795763      -0.45082850132520       0.50599315404583
C        -1.33446768811652      -2.35007392375111      -0.62314927467748
C        -2.59147634302763      -1.81915255079060      -0.58251976997887
C        -3.61630506398465       0.30861286233215       0.31761231571600
C         2.40796287597966       1.00130175468568      -2.24193892981969
C        -3.84157485234966       1.15672786045429      -0.92249238736654
H         1.23173779674210      -1.16855333001685       1.16544652429768
H         1.12452512081109      -2.73212895006977       0.32475720964143
H         1.30751045967524      -1.48259827966547      -1.90068559586971
H         2.75932463576917      -1.41719033727077      -0.87376139329329
H         0.62842950720229       0.79435256139667      -1.07028445179489
H         2.12264909051249       0.86890320431035      -0.08988970323858
H        -0.86037768645443       0.39499695331125       1.06629245189437
H        -0.96080669036116      -3.22959237018259      -1.13162456787014
H        -4.50341455515808      -0.29307062356234       0.56757723762158
H        -3.36621059816721       0.91660699658705       1.20034598691373
H        -3.51931239601443      -2.15976915913469      -1.02588721333037
H         1.91911101210026       0.64633486834904      -3.16143554804683
H         3.45951971379902       0.67261176811085      -2.25943337211661
H         2.39326322382894       2.10102047352600      -2.25536419623208
H        -2.95078080273824       1.75680468789792      -1.15453187520897
H        -4.69716522260289       1.82573359780338      -0.74862412914096
H        -4.04647441272064       0.52377236949488      -1.79854680834067
N        -2.88417491017665      -0.96982672830154      -3.37285581603849
S        -3.44389405964456      -2.35070445888404      -3.98423935455398
S        -1.37282506912271      -0.49352856747414      -3.58973321417930
F        -2.60550498154175      -3.50956148275196      -3.09797177836057
F        -1.36213186675144       0.13156873890062      -5.10631605430786
O        -4.80087254328016      -2.49240594982503      -3.48902453727736
O        -3.08947612791868      -2.64710414554853      -5.35446254163270
O        -0.36512063647191      -1.54365091931451      -3.62365429643675
O        -1.16315360953197       0.65808747466153      -2.72333194585773
