45
C13H23F3N2O3S optimized with ForceField in AMS.
N         0.20678954090597       2.29238851579171      -0.17091188888574
N        -1.86776481280406       1.49003803826929      -0.16412016067237
C         1.59236809256050       2.51364532212165      -0.58229526627905
C         2.53427737367593       1.49965215427477       0.08381327080205
C        -3.06588626521381       0.76204172799655      -0.57968975197185
C         2.12916433134191       0.05191252290159      -0.23076713826166
C        -3.13110063789326      -0.61998094044357       0.08602773172510
C        -0.76203878776481       1.70723574263516      -0.90210879266818
C        -0.30696127495564       2.46146548448588       1.06451564184724
C        -1.59451346142167       1.96509854364870       1.06825896247704
C         3.13275504814572      -0.95189146008193       0.34196691967292
C        -1.97447615686950      -1.52545096177089      -0.36127276896883
C         2.68045316852599      -2.38590768917558       0.07913829642148
C        -2.06220438103910      -2.90230696997088       0.28878830667243
H         1.89901604241564       3.54501329487918      -0.30446734820632
H         1.67978916664018       2.42329805315428      -1.68760119322993
H         3.56517525950677       1.68404336244518      -0.28558180512993
H         2.53018394921772       1.65837168216195       1.18426690380761
H        -3.96578900720422       1.35069499468651      -0.29971167224845
H        -3.07557246998359       0.64066460236006      -1.68544427235296
H         2.05812999806686      -0.08425504994947      -1.33245908179672
H         1.13480095575969      -0.15080836051157       0.21820761124160
H        -4.09627215779453      -1.09815101454553      -0.18929483869836
H        -3.11123253634304      -0.50078756658014       1.19138236016292
H        -0.63830612408393       1.37805622499133      -1.92678939120366
H         0.23045876803458       2.86880484963710       1.91094370749809
H        -2.26386021742131       1.91402038674940       1.91706379676318
H         3.22617679077629      -0.80352129033684       1.43957638494445
H         4.12817488113223      -0.79376800945665      -0.12639236192188
H        -1.99504328679632      -1.64481455276506      -1.46634169719666
H        -1.00578910065150      -1.06748620046955      -0.07592788646655
H         2.59143622814924      -2.56880240438370      -1.01291533988995
H         1.69776817345368      -2.57557039995463       0.56249066151638
H         3.42493051373765      -3.09409816074733       0.49955173560917
H        -2.02514627386447      -2.80935370123549       1.39517820208739
H        -1.20339636965999      -3.52383385059585      -0.04262458208355
H        -3.00461307046007      -3.40978689137414      -0.00740377304844
S         7.00537865872683       1.88271064191672       0.47598194081394
O         8.46201872253460       1.82761259217363      -0.00733150427422
O         6.20371755814434       1.86540241080307      -0.83365317261369
O         6.85401318372452       3.33259037617800       0.95929539819943
C         6.54586563532043       0.61277822489909       1.68806860835609
F         7.40178874617997       0.67770136809821       2.77061199363167
F         6.63639911435108      -0.63666102008157       1.10496180600847
F         5.25063161139648       0.83091792317133       2.11503702631031
