28
C6H11F2N3O4S2 optimized with ADF in AMS.
N        -0.13422262410674      -0.69467043983801      -0.69323964974433
N         1.85635633427608      -0.29449717463140       0.07320529365039
C        -1.37944615289973      -1.39932157357299      -1.04883526240071
C         0.87273769232747      -1.20451202585965       0.02898935510642
C         0.22911574733841       0.55509780886575      -1.14222316746708
C         1.48042756072138       0.80768423908405      -0.66153823601709
C        -2.03067143824651      -2.05316325809729       0.15669489474821
C         3.15266815582216      -0.46505103109077       0.72233220878978
H        -2.03597147132096      -0.63617780814171      -1.49008469627156
H        -1.12643657075776      -2.14170648054730      -1.82190931930346
H         0.91562446462035      -2.20738349937563       0.43879720921467
H        -0.42571241479907       1.14613675033526      -1.76988269704553
H         2.13853425237817       1.65694521902303      -0.79322136135405
H        -1.41278783295163      -2.87373711743838       0.54689311985388
H        -2.98821036963786      -2.49216514107456      -0.15652437295105
H        -2.22278301071075      -1.31935159262190       0.95388301598274
H         3.16051611185469      -1.42551723404603       1.24606485036164
H         3.92823342702787      -0.47988075834245      -0.05398381827389
H         3.30704385100368       0.35985885339684       1.42959125996360
N         1.38696960602764      -2.93979512255691      -2.39548483328749
S         2.94413109355660      -2.70006259938935      -2.06029947043762
S         0.69959582657467      -4.36145557780867      -2.08341894482496
F         3.73397460446754      -3.59772344336983      -3.17487344162847
F         0.54139194188030      -4.29681258071933      -0.39154619690901
O         3.24994011481946      -1.32016450336789      -2.40083612155182
O         3.38916074219890      -3.22413752198058      -0.77593396880124
O         1.49727036185286      -5.54583430247880      -2.30638718958180
O        -0.68094180691720      -4.27510583655552      -2.52643345622017
