49
C13H21F6N3O4S2 optimized with ForceField in AMS.
N        -1.27998369374454       1.31294654798389      -0.23078420960547
N        -2.66324449173772      -0.39024880245332       0.13179988893774
C         1.10875222424437       1.93448477003535      -0.21584454054092
C         1.57526830830681       0.48043631916922      -0.38066427571695
C        -0.26590953272622       2.16101173490531      -0.85578448291773
C         2.98452150870589       0.28456261495320       0.18094434917777
C         3.43233811651877      -1.17416095944519       0.04212338483937
C        -1.80610195355416       0.18007344659908      -0.73655335735954
C        -1.81701332038807       1.46018168663799       0.99731430179836
C        -2.67919347073095       0.40527017675674       1.22055179183694
C        -3.38050351352101      -1.65007093656080      -0.04563693947651
C         4.83235643887408      -1.37241388227755       0.61244185369550
C        -4.84098711773470      -1.38164664474790      -0.38095159656166
H         1.84080022157849       2.61633030336576      -0.70240783067401
H         1.06143897772756       2.19568961506123       0.86393920638504
H         1.56882214782810       0.20919660943426      -1.45964037190247
H         0.87745888201205      -0.19567672262632       0.15962491327496
H        -0.55661683494856       3.22795825417825      -0.74329984315355
H        -0.20539754376099       1.94351367934442      -1.94505974755149
H         2.99707152037558       0.57537624640856       1.25487588312632
H         3.68955486793402       0.93614277813122      -0.37762910467864
H         3.43649611133878      -1.46399262430232      -1.03148294291870
H         2.72563687925266      -1.83955386034944       0.58485161472035
H        -1.54774077183652      -0.23558425241513      -1.70273047827939
H        -1.58423895682789       2.26193720761140       1.68616514705748
H        -3.25558562083048       0.22031394402571       2.11783842806117
H        -2.92250991950173      -2.23585182501951      -0.87259230136254
H        -3.31207161259269      -2.25555399237315       0.88427967749542
H         4.84416914781851      -1.12547310018036       1.69550848552583
H         5.56050009060070      -0.72437032695328       0.07950124851773
H         5.13742999737096      -2.43217071766720       0.48493254174472
H        -5.32667502594653      -0.82188676323593       0.44596363044403
H        -5.37386657508976      -2.34467243006708      -0.52720651454690
H        -4.90917456476119      -0.78777695903382      -1.31731886002101
N         4.17609819554481       5.24009443479905      -1.23195299303872
S         5.76852110819083       4.95213735893824      -0.96841721803498
S         3.40944620018635       6.57091402390519      -0.65760331935841
C         5.95323222368395       3.97049602858692       0.50600464576960
C         3.32149500168310       7.79856152495528      -1.94540194362189
O         6.33261771319365       4.18759379205937      -2.13205983416237
O         6.51977292812914       6.24464115829939      -0.80703031410447
O         4.14244550283837       7.13762759983177       0.52674869165501
O         2.01242513681383       6.19841489024839      -0.24966482684515
F         7.29194348465231       3.70568214250556       0.72384324949929
F         5.27303533665534       2.77928640167265       0.35365590665471
F         5.43874217901682       4.65401198010135       1.59053751627497
F         2.69185917338620       8.93169573733112      -1.46573315483392
F         2.60447041029740       7.29537112323542      -3.01418616937281
F         4.59673561717429       8.12657841053701      -2.36396652235210
