43
C13H27NO2 optimized with ADF in AMS.
N         1.42581834889772       0.60168159738356       0.32764074947879
C         1.98400960566436      -0.78673548009556       0.15753111158007
C         2.38609665850554       1.45823263046221      -0.48946588751352
C         0.00589157501279       0.73746846965426      -0.18666503149018
C         3.50396856655460      -0.61716638220547       0.21113939226722
C         3.76205141656165       0.85229183224911      -0.21791499107515
C         1.49064876069300       1.05566909793791       1.75554478668817
C        -0.97469909096201      -0.25632767250390       0.40873588788277
C        -2.38289030007587       0.03294679760014      -0.12042486353756
C        -3.42486364510656      -0.95848751756167       0.39111533221362
C        -4.83371782327994      -0.65051739810413      -0.11284919060882
C        -5.87863567655620      -1.63771602600477       0.39918856268255
H         1.64901707139616      -1.12637362920770      -0.83401093232714
H         1.56931872055207      -1.45212992905524       0.92511827690445
H         2.21190245342131       2.50245440731381      -0.18771136087066
H         2.06612569485305       1.37044168502076      -1.53531878610293
H         0.06955606475026       0.64096368688820      -1.28015153423170
H        -0.24890525789839       1.79155535433770       0.01954904146658
H         3.98821711925793      -1.34282312538499      -0.45693804423103
H         3.88552571238314      -0.80726656029402       1.22499905741571
H         4.29447080534985       1.40197396867215       0.57276028510313
H         4.38022310314946       0.91550689636773      -1.12402669149245
H         0.85730304126901       0.40444224794244       2.36836983754980
H         2.52921883666753       0.99277416165288       2.10154817739972
H         1.13580620529858       2.09967351658529       1.75105212448498
H        -0.70140002352964      -1.29648710809432       0.15237299024726
H        -0.99557986626338      -0.18674711039241       1.51039326493960
H        -2.37043681945573       0.01660532138003      -1.22553497208828
H        -2.67109471146547       1.05951534122708       0.16846563870163
H        -3.42536422080052      -0.95478038962184       1.49803634175139
H        -3.14321057138679      -1.98411472805317       0.08392523711932
H        -5.11002873668372       0.37490841803574       0.19319595562921
H        -4.83168238067721      -0.65161160766557      -1.21840482404929
H        -5.91869413103688      -1.63382299639896       1.50088006756799
H        -6.88257330824666      -1.38709556752089       0.02468628219289
H        -5.64419198125519      -2.66546342837122       0.07704961959457
C        -0.12389874741624       5.48050205700109      -1.01230647439046
C         0.32460922731452       4.02714464450331      -0.79418842159742
O         0.39401240113435       3.27717020291078      -1.80538626740894
O         0.57191732677955       3.69491791885167       0.42196661016820
H        -1.18636267421321       5.57268588085699      -0.73373582953962
H         0.44259591515818       6.16616142063796      -0.36532409161397
H        -0.01506791361501       5.76789161716303      -2.06729261196048
