37
C13H21NO2 optimized with DFTB in AMS.
N         2.50689173755704       0.13635311812305      -0.70992088368284
C        -1.29947059791623       0.20103753716070      -0.59484757370223
C         0.13301944558110      -0.04755835497104      -0.11610384561059
C        -2.32087860641878      -0.22433232980049       0.46466606554973
C         1.15271757776300       0.38017313225384      -1.18060520046912
C        -3.75500216799029       0.02406189428117      -0.01331342012724
C        -4.77563234612041      -0.39946094398358       1.04180786358406
C         3.07630298744915      -1.11439589708135      -0.85602787237858
C         3.14662873763524       1.07281017389474       0.07515085115133
C         4.25226972413130      -1.43366188500702      -0.30947476320793
C         4.32629149848230       0.83597311460203       0.65767053028319
C         4.99484603463980      -0.50363408461928       0.60385037611480
H        -1.47706906847980      -0.35949873776923      -1.51937167841655
H        -1.42873155791711       1.26541832104624      -0.82046369508364
H         0.32120742213791       0.51393635848399       0.80425837627618
H         0.27280157298623      -1.11017767516082       0.10530977784217
H        -2.18969533075319      -1.28835977987598       0.68960786195334
H        -2.14125901363183       0.33614863078055       1.38856031177805
H         1.04471046402874       1.44683572937423      -1.40215241520151
H         0.99537393851860      -0.18482937175329      -2.10503729857737
H        -3.88454588198805       1.08824169275880      -0.23830898147790
H        -3.93297360230928      -0.53661753045590      -0.93734282587167
H        -4.62762043320077       0.16345604195890       1.96450707177574
H        -5.78720783400542      -0.21361954629848       0.68007704181598
H        -4.67616183291265      -1.46272699681695       1.26477849025254
H         2.52865737485429      -1.80135476173915      -1.49251779316057
H         2.65336974699961       2.03679876269295       0.14348652783344
H         4.68343506359539      -2.41364492781777      -0.46688930130841
H         4.80842627251313       1.60592434396499       1.24595790735148
H         6.05650126591425      -0.42823685406821       0.32205396435464
C         5.72262814157668      -2.49485953609606       3.67459972547431
C         5.86085718415322      -2.01157039570210       2.24658612933571
O         6.65754426530544      -2.45642970299540       1.46190418960254
O         4.98627641429952      -1.05190094434658       1.97577834620928
H         4.96499165283159      -3.27779864257924       3.69568919139600
H         6.66919184494577      -2.90932420758899       4.01280038810817
H         5.40564090664447      -1.68185796724929       4.32342928243349
