60
C16H36F6NP optimized with ForceField in AMS.
N         0.00085890274277       0.00043309940817      -0.00094596450252
C         0.84610125651179      -1.03174925082296       0.70039146420724
C        -0.86895486453936       0.68149291630254       1.02389549479636
C        -0.82747852464825      -0.69225096597295      -1.05242422855337
C         0.85354207682504       1.04462579214787      -0.67472476938605
C         1.89736144168905      -0.48496932760944       1.70214074928421
C        -1.93660742029222       1.66049039979285       0.46938402695251
C        -1.89831537921175      -1.68621867869436      -0.53072137749728
C         1.94016082094390       0.51334387710149      -1.64614823088707
C         2.67064729279611      -1.63818321913452       2.35629336704968
C        -2.73619654523423       2.28974536160154       1.61828517961328
C        -2.65573799163499      -2.32720568596593      -1.70185845027068
C         2.72691962101520       1.67724947520128      -2.26437402000668
C         3.70514507562747      -1.11914044501006       3.35188988621843
C        -3.79031331540506       3.25968658817228       1.09328816656612
C        -3.70399613112100      -3.32107949048151      -1.20781934360237
C         3.78971257211738       1.17385099027010      -3.23785197032533
H         1.37027384353712      -1.67643605705987      -0.04025882059412
H         0.19891232063930      -1.72202879904126       1.28307268143176
H        -0.24143892571236       1.27748287952699       1.72082140984545
H        -1.38270136716372      -0.07167704864675       1.66260068183461
H        -0.17021361978081      -1.27897701619476      -1.72956306248636
H        -1.33184328978855       0.05398935730931      -1.70660414351978
H         1.34757945636972       1.69375196546096       0.08266590902466
H         0.21555716177579       1.72821972821076      -1.27513680098985
H         1.40298290572894       0.09061978974397       2.51003357786130
H         2.62744202361498       0.17413596079343       1.19096460352363
H        -2.64742145923507       1.13648519643083      -0.20079509432770
H        -1.45427067986691       2.48252116704444      -0.09642682521532
H        -2.63632258834591      -1.17155471499172       0.11668342302093
H        -1.42171199910894      -2.50092332355526       0.05036675265219
H         1.47475802889833      -0.05784699539829      -2.47425067744560
H         2.65781780800988      -0.14587078249437      -1.11795388505919
H         3.19020756445472      -2.23262171802027       1.57348327179415
H         1.96274203386308      -2.30718323740705       2.89321799309240
H        -2.04846424841233       2.84153382810387       2.29603485694568
H        -3.24173282435595       1.49149015414025       2.20440997577011
H        -1.93984738038387      -2.86295262660225      -2.36328259616475
H        -3.16115103272075      -1.53686568792892      -2.29871003068579
H         3.22311334068645       2.26303098506811      -1.46010554446036
H         2.03188820352526       2.35124572418144      -2.81175065823891
H         3.20886959589447      -0.53667689826879       4.15721230453693
H         4.44675051792376      -0.47297952897127       2.83609409948848
H         4.24040127258808      -1.97520990410937       3.81354077686933
H        -4.51511884143331       2.72080260487405       0.44873202070509
H        -3.31134686873681       4.07384724593739       0.50855962361444
H        -4.34007065713966       3.71151189153192       1.94524448182402
H        -4.45366342176045      -2.80613019303822      -0.57037999027769
H        -3.22169309065129      -4.13328905764849      -0.62315458766217
H        -4.22707672627612      -3.77372315204217      -2.07613578928913
H         3.31713502835935       0.60032031420617      -4.06357417762936
H         4.51891605781988       0.52314358094295      -2.71023010419541
H         4.33464573258232       2.03713425698949      -3.67402167382051
P        -5.57298458753794       3.05760241342902      -2.92364268927347
F        -7.15434592268096       2.57885917321315      -3.39590526803805
F        -5.23982509866489       1.45842929481567      -2.38856442349986
F        -5.04087503185929       2.68847090040762      -4.51547404745550
F        -3.98343827104999       3.49125027491879      -2.43408163433148
F        -5.84832331810626       4.67623479754089      -3.43079133640860
F        -6.22058096618114       3.48051355009118      -1.38966063362271
