62
C16H36F2N2O4S2 optimized with DFTB in AMS.
N        -0.38421785626067       0.00276015890870       0.08462301315252
C         0.40489157603492      -0.98802793039412       0.90870068778185
C        -1.43230763049762       0.62457528816981       0.97622471953064
C        -1.01065686489230      -0.73244611239271      -1.07268546413936
C         0.49173559840969       1.09832996609150      -0.45149987685886
C         1.33415926935847      -0.37517172001412       1.95364370442023
C        -2.42063066131279       1.56152555356715       0.28890451071395
C        -2.07033385593603      -1.75922248041633      -0.68282194288109
C         1.65490734972698       0.63374050585610      -1.32621115513695
C         1.82815553490564      -1.48403466224929       2.89366601100933
C        -3.49843846130229       1.95970538734247       1.30813402484448
C        -2.54950207880602      -2.51050306646947      -1.92966289324670
C         2.53397275137514       1.84038488501548      -1.68027012793332
C         2.65736745522392      -0.89782628440843       4.03299690576174
C        -4.52209338645861       2.90355465432257       0.68421188833650
C        -3.60609240025865      -3.54557212691723      -1.54749925917155
C         3.70604484110841       1.42422248661528      -2.56606180882496
H         0.97588123885110      -1.60963385232836       0.21502292294471
H        -0.32874870346375      -1.61844841206560       1.41552714512691
H        -0.90027605280572       1.16841131591512       1.75872277824831
H        -1.97393949787682      -0.19612455368213       1.44466594511144
H        -0.19762525916480      -1.23521961580396      -1.60193225244075
H        -1.43835890854225       0.01921054100201      -1.74087912318556
H         0.86956095596414       1.65422611474434       0.40951124373539
H        -0.15049003595687       1.76400917842695      -1.03250185859273
H         0.80667860812226       0.37361021211939       2.54698425728916
H         2.19241903435442       0.10782689454765       1.47788622109350
H        -2.90085262479571       1.07025258172908      -0.56105925752873
H        -1.91573879848181       2.46015195015965      -0.07870203393090
H        -2.92556230068155      -1.27167097185262      -0.21214284377966
H        -1.66172985977697      -2.48080969435718       0.02644587815649
H         1.28161468702507       0.18053193765859      -2.24835351128223
H         2.26198173449069      -0.10975028612575      -0.80508777403267
H         2.42433565404842      -2.20643190890595       2.32599386769216
H         0.96359944056380      -2.00884942108427       3.31083844908115
H        -3.02445425524607       2.44302972819538       2.16711068419982
H        -3.99957495697007       1.05759774238772       1.66972712507233
H        -1.69893808097579      -3.01026217330073      -2.40621898146751
H        -2.96929499916030      -1.80033776907169      -2.65054288133229
H         2.91422361465922       2.29430747997887      -0.75941974228284
H         1.92920094717459       2.59061299055967      -2.20011441386945
H         2.04678988480335      -0.21799032851829       4.62734402841106
H         3.51772103299193      -0.35057754245149       3.64438566445525
H         3.01532150904669      -1.69954968881341       4.67843994914580
H        -5.01934678434921       2.42636523068585      -0.16162573963893
H        -4.04110688687607       3.81843637131497       0.33425084570459
H        -5.27559728746938       3.16868311514630       1.42525613192001
H        -4.47307685529705      -3.05657475083878      -1.10296611974720
H        -3.19924066619494      -4.25235284153202      -0.82408263585057
H        -3.92820236519632      -4.09404564793834      -2.43239947364048
H         3.34537357439210       0.98726726480455      -3.49790118975950
H         4.32918796385479       0.68958423735295      -2.05496605521225
H         4.31729017870872       2.29452009203432      -2.80321478316777
N        -1.49789588108792      -1.64417594644913       3.37466712157629
S        -1.76164761662937      -0.36480982770114       4.29007697919447
S        -2.75699788638805      -2.51289308304101       2.94809400695810
F        -2.14286358333048      -0.96079788113397       5.72967203032610
F        -3.61449078284866      -1.48429891877990       1.98534324219612
O        -0.49427943021840       0.27393427858772       4.47725276563953
O        -2.87524817010357       0.45088253883567       3.91636731295420
O        -3.67834516969237      -2.88543506895378       3.96361719676233
O        -2.28305537988921      -3.49591112778456       2.02332641278832
