43
C13H28ClN optimized with ADF in AMS.
N        -1.54948023011311       0.09241370021311       0.01218648760727
C        -2.57858268494622       0.38002776800442      -1.07358821418408
C        -1.76188742623873      -1.32842356365814       0.52840498815997
C        -0.19633687174155       0.15070221475499      -0.67747356020816
C        -1.64163473855507       1.06449566675563       1.16096114118415
C        -4.00571324777089       0.14447981316226      -0.61691676507706
C        -3.18832943140969      -1.59230315631056       0.97963905840964
C        -4.17690255718846      -1.30053205493816      -0.14776602129487
C         1.00029020965139      -0.06275709339306       0.22612671209790
C        -1.34790666216089       2.50813964583085       0.80361565907879
C         2.27300619079967      -0.08855707958469      -0.62122976363081
C         3.52742294620680      -0.30728400016303       0.21724668374221
C         4.80153540157669      -0.33936088941047      -0.62222361196984
C         6.05263517876963      -0.55947433162550       0.22124522793184
H        -2.31465407432572      -0.33558812760229      -1.88529209532274
H        -2.40039678734542       1.41081285538607      -1.40888226561596
H        -1.04464393849940      -1.47177619513437       1.34769554115842
H        -1.51084725721399      -1.97588160480368      -0.34203088683881
H        -0.14521153565101       1.13026226328353      -1.17628083914284
H        -0.26275636920023      -0.63843583988205      -1.45977459717059
H        -2.65287765785584       0.96662491550819       1.57342418844421
H        -0.93825343974672       0.69929740730586       1.92330700818878
H        -4.65415678367482       0.35025200011466      -1.48521888220097
H        -4.31005365205358       0.85263499095567       0.17620369646467
H        -3.44802035968340      -1.01538684153986       1.88606028146892
H        -3.23093980741549      -2.65705614977662       1.26613810417752
H        -5.21115033621941      -1.48423806828535       0.18483326654799
H        -3.95480016265084      -1.97404441381638      -0.99505660837841
H         1.09260542438618       0.72760557717237       0.99222648107395
H         0.91956790527639      -1.02693785711432       0.75342784783038
H        -0.32115641509133       2.64749066482371       0.43955050517200
H        -2.04436817307785       2.90207573977939       0.05102266891524
H        -1.46474363366470       3.11985708964251       1.71061357198780
H         2.36482891857918       0.86098853732973      -1.18041770437688
H         2.17982307287925      -0.88951676531949      -1.37546210227625
H         3.43209829170161      -1.25835174396425       0.77441112877119
H         3.60817691928396       0.49257536808884       0.97807998782482
H         4.71034195694174      -1.13875082466384      -1.37882461622069
H         4.88625995007320       0.60919048727484      -1.18270223718558
H         5.99333240868051      -1.51493213504201       0.76630880192314
H         6.96201773613932      -0.58010101157962      -0.39738149864204
H         6.16891093814525       0.24314457325822       0.96697585118628
Cl       -1.38753550369642      -2.32908104433713      -2.60876598331050
