32
C10H14F3NO3S optimized with DFTB in AMS.
N         0.94886632189539      -0.31078667163215       0.51387861634231
C        -1.42355382503852       0.03070025291974      -0.01549935505673
C        -0.38404060555685      -0.12332842745529       1.10128451341500
C        -2.83951198132440      -0.05802177973614       0.55817190416657
C        -3.88087168354923       0.04251577402873      -0.55412047829588
C         1.57328184916118       0.73979807845459      -0.05308825610700
C         1.46398328748989      -1.54348813276010       0.43499941658197
C         2.77619128248746       0.57021461352401      -0.69599252208476
C         2.68134005537930      -1.76301716485991      -0.19008240861062
C         3.34483078203898      -0.70150944976625      -0.77277099007255
H        -1.27377902801110      -0.76625916847798      -0.74855732375223
H        -1.27509580281445       0.98971152876595      -0.52103863406915
H        -0.60815444472673      -1.00196657943583       1.70888528922624
H        -0.35679894414500       0.76167539724046       1.74317457415539
H        -2.95584644665167      -1.01514308267456       1.07599617890792
H        -2.99475782064055       0.74416175947178       1.28821461604975
H        -4.88235459017293      -0.02458202194326      -0.12967749325787
H        -3.78815361196654       0.99174847147241      -1.08349107544649
H        -3.74887264612433      -0.77074476138448      -1.26759191786651
H         1.08616013158112       1.70383279465332       0.02935639837154
H         0.91288756927126      -2.34804252064991       0.90392270133917
H         3.26221920642823       1.42633312311807      -1.14615800211085
H         3.04955924287473      -2.77915381195128      -0.25120025810011
H         4.28616580794284      -0.84808634275622      -1.28813479279621
S        -0.00427016044828      -3.64973513145036      -1.35351820362749
O         0.15541418953482      -2.20156853150426      -1.52197416988954
O         0.99484025318205      -4.22526074003050      -0.46956760794463
O        -0.29527337224433      -4.37943910951246      -2.55397197100768
C        -1.55722576937774      -3.71489241457993      -0.33170398209890
F        -2.55004653410556      -3.04354005100837      -0.91283673890814
F        -1.31487117819311      -3.10390427601305       0.84823507415176
F        -1.97386554007591      -4.94198942616677      -0.07190347470428
