41
C11H24BF4N optimized with ADF in AMS.
N        -0.16665179645169       0.34156461660486      -0.21929637556693
C        -0.86684342321499       1.35726820477858       0.67925446662626
C        -1.05219388936118       0.06289716969465      -1.42640822958103
C         0.12244494635855      -0.90701912606823       0.58397782937385
C         1.11267811456389       0.95547631316112      -0.77508899927283
C        -2.28631783025350       0.95359307160389       1.04790149607384
C        -2.45647844668631      -0.37897419995034      -1.05475383477216
C        -3.13370175055832       0.68874152985804      -0.19514404888754
C         0.89694258348556      -2.00283804391048      -0.13223124616817
C         2.11194455081356       1.45512057964150       0.24975536314832
C         1.05403204058312      -3.21498966688385       0.78719195308870
C         3.28033270176279       2.10356246532072      -0.49708769268009
H        -0.23698705334755       1.46691341218759       1.57214278058970
H        -0.85780399864745       2.30398998765563       0.12023541502798
H        -1.09485076160283       1.02396990251118      -1.96430632691869
H        -0.52196042106333      -0.67378991442085      -2.04511359196903
H         0.67567728970089      -0.57006553083939       1.47376380671932
H        -0.84612533173724      -1.29474038022020       0.92595558811506
H         1.55593959159468       0.18876101940256      -1.42864156112765
H         0.79622293968879       1.79306227397201      -1.41266355124726
H        -2.29619653454347       0.07321191538517       1.71533304461451
H        -2.70300252723164       1.79138352584666       1.63179808320243
H        -3.00520716956084      -0.52765921242172      -2.00009935998896
H        -2.45270186667229      -1.35579953328083      -0.53728568059315
H        -4.15129846530257       0.37522471748519       0.08820570298763
H        -3.21367648839983       1.62131251273123      -0.78118965931153
H         0.37317296407024      -2.30939062645273      -1.05217988725945
H         1.89407294906147      -1.63898490767747      -0.42680900222985
H         1.63904493199871       2.22571006010532       0.87744270753549
H         2.47684136901421       0.64000807141406       0.90000576056773
H         1.62121653463490      -4.01123309663988       0.28462894051081
H         0.07494861709749      -3.62864029260322       1.07540927835205
H         1.59492102088799      -2.94814751865966       1.70864426475339
H         4.00965764243908       2.51818157735839       0.21270720901032
H         2.90560328223449       2.92083169815480      -1.13173449311168
H         3.80107842605790       1.37469914754632      -1.13825209299696
B        -0.19877187957156       4.06153237081253      -1.79851083132051
F         0.82539040106579       3.50747209006386      -2.62494489129252
F         0.26673640218756       4.05458317700236      -0.43976708545226
F        -1.34007110539596       3.16320840752141      -1.86045795598408
F        -0.56254808439911       5.34120332110921      -2.20215391986507
