30
C8H12F2N2O4S2 optimized with ADF in AMS.
N         0.94662924772222       0.45033728671007       0.38243924570191
C         2.22706052385047       0.44941029699131      -0.37702677466789
C         2.78551912617110      -0.93551772043293      -0.66339375264875
C         4.06313962487994      -0.80183750119613      -1.49051637361229
C         0.00417911553873       1.37151798751728       0.07175730842598
C         0.79593267921617      -0.35452053825575       1.45611170958147
C        -1.14724790239904       1.48441754872086       0.81806497504109
C        -0.36171777682143      -0.29901338609562       2.21464161723250
C        -1.33938427931099       0.63389728284079       1.90653279129412
H         2.02110877758203       0.98081269981637      -1.31784751118387
H         2.93785527282468       1.05519604794041       0.20897100310872
H         2.02874697114008      -1.53769634113517      -1.19657116163327
H         3.03649621898400      -1.44648554367023       0.27876807394388
H         3.87390086791888      -0.28987558138660      -2.44709967041672
H         4.48204182595509      -1.79327666952568      -1.71271830229983
H         4.81981160964216      -0.22880258702155      -0.93293995886506
H         0.23020606520930       2.01760226983957      -0.77321104994498
H         1.61941597393842      -1.02487308024671       1.68860969025654
H        -1.87343302226240       2.25406775998522       0.55999589678493
H        -0.45250811924444      -0.96125023715120       3.07494562849750
H        -2.23672837800344       0.71927965925561       2.52069131940823
N         2.38499413057423       1.20445970354561       2.98310765804949
S         3.89140555833101       0.66542484968953       2.81983848171259
S         2.04356136475712       2.77846959992750       2.97480371732517
F         4.55790668409639       0.90354420193756       4.29310823007831
F         2.22085478722949       3.16181670949667       1.34452797899582
O         3.78552785123560      -0.78262657443653       2.68782405316372
O         4.73530631523136       1.40815490099683       1.89964856447426
O         2.98825303074692       3.64409965102926       3.64307449596589
O         0.61123591876634       2.89729730721365       3.17727275973055
