59
C17H21F18N2P optimized with ForceField in AMS.
N        -1.27683049509444       1.29615378927750      -0.24355919274951
N        -2.68462985879171      -0.38812231677264       0.11137453976606
C         1.11052023564253       1.92629621557712      -0.21051817274492
C         1.60136479529331       0.48130758359560      -0.38189654753095
C        -0.25884589864189       2.13919038674842      -0.86817356074346
C         3.00626044457893       0.29540878486747       0.20023555096001
C         3.46529213628113      -1.16033867123112       0.05336105166288
C        -1.81698287891821       0.17178031662179      -0.75365225684838
C        -1.81777239097172       1.45057210368895       0.98158963080365
C        -2.69285038847518       0.40567610055659       1.20137897072908
C        -3.40763028375777      -1.64519651987671      -0.06300588578518
C         4.86194423009326      -1.36166595934286       0.63229707965762
C        -4.88043722924679      -1.37480613996350      -0.34233496369215
H         1.83855522013889       2.62155643149320      -0.68239363050383
H         1.04615015951476       2.17738653359117       0.87085461636031
H         1.61510759871951       0.22177032445889      -1.46354235414389
H         0.90262975028181      -0.20950424460901       0.13834105740374
H        -0.55577427803207       3.20592421477752      -0.77152392037671
H        -0.18719752645715       1.90934901767618      -1.95412853864039
H         2.99841711936745       0.57273261546005       1.27757595107620
H         3.71790721911866       0.96320473561822      -0.33360877987384
H         3.47748459331283      -1.44298024927977      -1.02216394162623
H         2.75658658680100      -1.83241127219561       0.58518987406080
H        -1.56345715111468      -0.24388527839416      -1.72117711762784
H        -1.58029178248197       2.25169706776614       1.66966881686515
H        -3.27320183827752       0.22573411005253       2.09719968784921
H        -2.97692180890516      -2.21750565088599      -0.91348498564993
H        -3.30506484086282      -2.26465212808491       0.85439125011582
H         4.87027867172010      -1.11203916073208       1.71475731499929
H         5.59613368428222      -0.71969347603780       0.10049628587863
H         5.16385239584530      -2.42340546998723       0.51041194113015
H        -5.33163949374248      -0.79764921810841       0.49206924653888
H        -5.42366816925051      -2.33714596297219      -0.44609027649008
H        -4.98584638600548      -0.79939949464225      -1.28672054147105
P        -3.82987952874346      -7.72088892160878      -4.13399855188651
F        -2.63332668509023      -7.42266166000446      -2.93271149641662
F        -5.23870309106727      -8.45231498589103      -3.46164767915847
F        -2.67766580868775      -6.75654620306825      -4.97330830937205
C        -4.63628443315560      -6.24813616253628      -3.16430014484188
C        -2.93749674945784      -9.41212215172666      -3.83642887934199
C        -4.44555716516704      -7.86734110895009      -5.96149025837763
C        -3.83513601751059      -4.92095519330099      -3.07277775005927
C        -3.51394330427564     -10.64922035431151      -4.55693062119554
C        -5.15350979462165      -6.63767713919979      -6.56586668374828
F        -4.87431126100326      -6.64622674711802      -1.85429040461888
F        -5.86578642052868      -5.95178383031913      -3.71780219868514
F        -2.96330970020051      -9.72050483983683      -2.47933530636912
F        -1.61170513317760      -9.29366562193236      -4.22943708313136
F        -5.35811109478088      -8.90475568523404      -6.03911612945908
F        -3.38132475912856      -8.19427624953520      -6.79146078750676
F        -4.65135474722433      -3.95069752893426      -2.51957943399843
F        -3.42181263691862      -4.46471555033872      -4.30607468759158
F        -2.73026323201992      -5.05351383917386      -2.25066630452410
F        -2.85016899465821     -11.77534386721663      -4.10111726304382
F        -4.85944780670563     -10.81518586505711      -4.28515800947709
F        -3.31648584774224     -10.58007402038801      -5.92176683792681
F        -6.43217609971292      -6.50980584537776      -6.05693650709854
F        -5.26863170195915      -6.81501153967024      -7.93371938131212
F        -4.44859543352658      -5.47453250618105      -6.35130753581808
