33
C7H16F2N2O4S2 optimized with ForceField in AMS.
N         0.83599599118725       0.00879464608320      -0.04115440460974
C         0.08299011028558       1.24296903033033      -0.40811989193809
C         0.06999008421966      -1.21269704072360      -0.42242010413435
C        -1.34572311497225       1.27838487366465       0.16264287243527
C        -1.36207342080298      -1.23783767071686       0.14263268195783
C        -2.12600091074320       0.02810483878785      -0.23609130798190
C         1.16902285463699      -0.00201491111968       1.40722256874329
C         2.11583589291842       0.00549248770852      -0.79277566341901
H         0.00183763939239       1.32831932754117      -1.51693186754909
H         0.62476023942747       2.15098498909802      -0.05782162592372
H         0.60370640190297      -2.12764465889264      -0.07955318605455
H        -0.00789478917777      -1.28873063748388      -1.53198728035096
H        -1.87258872069050       2.17099612696421      -0.23814593193012
H        -1.32662470506176       1.38148973149589       1.26753310401684
H        -1.34817335426434      -1.36341424326696       1.24547968405027
H        -1.90243671335153      -2.11237485766487      -0.27865623754363
H        -3.11179549541618       0.02929800121030       0.27693364820853
H        -2.30873685702783       0.03686369519983      -1.33315526013043
H         0.26595728974654      -0.00536680033753       2.04836859868460
H         1.76365803498588      -0.90456343323263       1.67374350530427
H         1.76765053966171       0.89415570448720       1.68576469153003
H         1.94039878158423       0.00924998154083      -1.89227670371749
H         2.72881799845296       0.90219574168996      -0.54709584494185
H         2.72087833990349      -0.89834905299855      -0.55279539910536
N        -1.41041054332484      -6.55857238766373       1.65391315528113
S         0.08170153305430      -6.85806797647662       2.25617561022821
S        -1.61743213172246      -5.55210965926172       0.38080686055927
F         0.63072016592234      -5.50771843003063       3.08069749418688
F        -1.21184611767429      -6.35261617789406      -1.03249165779870
O         0.02143072976934      -8.02743060763885       3.19685064805533
O         1.03355601171219      -7.15951287409056       1.13272474535728
O        -0.72393000418494      -4.35505867391649       0.53203862120228
O        -3.05185268064886      -5.11146550259209       0.30964105702766
