35
C11H18BF4N optimized with ForceField in AMS.
N         2.36931853897634       0.03586101904232      -0.52164429832567
C        -1.44464450438411       0.05980602479389      -0.69875616126116
C        -0.04496520505948       0.02505079774589      -0.07703856073607
C        -2.52464310145435      -0.00875217036475       0.38817537749004
C         1.04497425004949       0.08608979399080      -1.15153531130956
C        -3.92922178281998       0.01068254676803      -0.22479037722270
C        -5.00194496542479      -0.08601608213844       0.85705949469177
C         2.96126476116304      -1.17421797799022      -0.28258235792345
C         2.98437017249268       1.19711232242232      -0.14106253260872
C         4.20304575632242      -1.24216992572795       0.35234929087040
C         4.22646415989488       1.16479251612147       0.49611966833260
C         4.83664233515850      -0.06389388330576       0.74468336452865
H        -1.56112758427088      -0.80439602395173      -1.38960266656940
H        -1.56625023776207       0.99956165012223      -1.28156136676368
H         0.07533638910520       0.88928038936055       0.61289582891325
H         0.07550881401350      -0.91219089507092       0.50988550983826
H        -2.39418056051142      -0.94368225791143       0.97713919239797
H        -2.41201683142301       0.85992741216393       1.07428078462478
H         0.93703525304695       1.02056264157588      -1.74677227479548
H         0.92527423114210      -0.76298901773682      -1.86146007062513
H        -4.07561960541786       0.95353112705650      -0.79586724263046
H        -4.04594236655683      -0.84697514308997      -0.92283934672181
H        -4.91222927658349       0.76166895436318       1.56835623288225
H        -6.00847777310599      -0.05204658512637       0.38894988953419
H        -4.90123496173683      -1.04076602125895       1.41625493841196
H         2.47041945960193      -2.09502058118939      -0.57519279968165
H         2.51181879687022       2.15552314739766      -0.32135759335465
H         4.66686295384741      -2.20147355341019       0.54232412775758
H         4.70853247059600       2.08545055371634       0.79850239811306
H         5.79713329878740      -0.10292992023195       1.24131968818296
B        -5.25405774643334       4.43452632594786       0.58557262143846
F        -4.17068677445727       5.33564653767288       0.41044335638175
F        -5.62381298374022       3.88765530108777      -0.67184989948104
F        -6.36052499790537       5.12718451318554       1.14490644955099
F        -4.86056336432077       3.38842525936977       1.46017546006972
