38
C10H22BF4N optimized with ForceField in AMS.
N        -0.55866485308145       0.30706295739314       0.15307876991419
C        -1.55145402153053       1.24388782660113      -0.46489046603343
C        -0.89725698518432      -1.10825374235727      -0.19126176040072
C         0.78040469210721       0.66477407024289      -0.42360643368519
C        -3.02244611817568       0.90047671007124      -0.16249635843886
C        -2.34967839137710      -1.49206931146200       0.14108527239482
C        -3.33261746837442      -0.54446006461144      -0.53634765746147
C        -0.53061965992064       0.50200817830006       1.62926858714586
C         1.98161030659429      -0.16545873610713       0.09215835689529
C         3.28567651886571       0.31448605105027      -0.55935301221514
C         4.48425590720625      -0.48231940223566      -0.05117590521479
H        -1.44391045903373       1.24489052057514      -1.57488705721331
H        -1.36293741488192       2.28972348849841      -0.13055528994470
H        -0.24211784582443      -1.81865487626601       0.35761329807688
H        -0.73545195930862      -1.29002958041582      -1.27877643670242
H         1.00262357031973       1.73688491032502      -0.21900323725541
H         0.75734117579034       0.56009710912375      -1.53346068225249
H        -3.67672568837268       1.57255424877644      -0.75962917471801
H        -3.26792215300391       1.08368711983574       0.90408380452343
H        -2.51279745425945      -1.49145374401352       1.23976259696998
H        -2.54050983393505      -2.52659770926190      -0.21864998021926
H        -4.36780841798804      -0.79518800359048      -0.21881230729622
H        -3.26962310283461      -0.66746011534162      -1.64066210351909
H        -1.53537516032554       0.42105089281205       2.08642767526220
H         0.08796978350847      -0.27055430761029       2.13301999830664
H        -0.12915262956459       1.50577912100042       1.89358243853038
H         1.84586492589416      -1.23807446982425      -0.15723317606865
H         2.08709040738956      -0.05621779470876       1.19121301999136
H         3.44691910531882       1.39034532978270      -0.32825834313953
H         3.21925296151737       0.19864308656722      -1.66351275168972
H         4.36322554066659      -1.55935876847530      -0.29523306290190
H         4.58801244246494      -0.36430572955295       1.04867575686105
H         5.41055337526466      -0.10954617815288      -0.53666635264376
B         0.60742146935402       4.47413469208422      -2.37120813607212
F         0.40083135946050       3.24979275195919      -3.06103346836901
F         0.71777260245660       4.22210845084941      -0.97849939316869
F        -0.49108828852614       5.34261173388123      -2.60790916088895
F         1.80230139572362       5.08468820215761      -2.83692564385921
