16
C6H8ClN optimized with ForceField in AMS.
N        -0.72288941457288      -0.01772775572893       0.01982622431781
C        -0.05169882816018       1.16807327044085      -0.09576252388275
C        -0.03923858552118      -1.20112783399494       0.07348169065616
C        -2.18710912879172      -0.02064539217856       0.04344407787071
C         1.34369115674217       1.19002302814323      -0.14045857770748
C         1.35657520406448      -1.21490624165754       0.02982572291354
C         2.04998062371957      -0.00998900723489      -0.07413852005502
H        -0.59319546869110       2.10537649280173      -0.15257681715085
H        -0.57047606398060      -2.14302511488224       0.14606025938770
H        -2.57384151296489      -0.90863142903260       0.58881571972558
H        -2.57229611129389       0.88383249292532       0.56201698466437
H        -2.57358874090907      -0.03664883920456      -0.99723438152952
H         1.87154218613052       2.13085917703428      -0.22746976980783
H         1.89454244983630      -2.15335454956051       0.07293556209170
H         3.13175208942784      -0.00641563087605      -0.10724208616047
Cl        3.17435130496464       3.02337196210540       2.43762307236635
