46
C14H29NO2 optimized with DFTB in AMS.
N         1.29290821189548      -0.55641866198356      -0.16411468512857
C         2.30641867483200      -0.24744754852712      -1.22658563559632
C         2.01537303548847      -1.57932723449315       0.66422049222094
C         1.00085637454160       0.65041965991778       0.67323890176528
C         0.06690587161798      -1.13337796657689      -0.80191595705651
C         2.92348859897615      -1.59066054779898      -1.59390116398721
C         2.77477846341108      -2.45144001498298      -0.33049102086142
C         0.32985110315148       1.78644340403831      -0.08996307578305
C        -1.07703399831533      -1.43069036271283       0.16743778851291
C         0.21784840910974       3.01043144011284       0.82878516171744
C        -2.20208458673053      -2.15954956162743      -0.57687621076890
C        -0.43942601530348       4.18448626853055       0.10711613553423
C        -3.37489619196562      -2.45740058621099       0.35506285043846
H         3.06377899434241       0.38757400940462      -0.76173848460311
H         1.83214807435853       0.26603507960095      -2.06313523832557
H         1.30747267101744      -2.12648945205976       1.28581696986713
H         2.71696446969178      -1.02116452231292       1.29254157280641
H         0.38492966008627       0.32664018769995       1.51470790714447
H         1.97473230048876       0.98117791997873       1.06011945306164
H        -0.26987073359646      -0.42617138354934      -1.56406195463284
H         0.37225865675572      -2.05490320477100      -1.30225857160440
H         2.42130659316173      -2.04696284801045      -2.45097743338225
H         3.97643350451313      -1.44221947392640      -1.83565015287589
H         3.75548569244956      -2.68814677665475       0.08358134537643
H         2.24095193193575      -3.38171901944366      -0.54099099249879
H         0.92402500714152       2.05150213780185      -0.96845358373245
H        -0.66991421039272       1.49866152733598      -0.43042342157516
H        -0.72829719225391      -2.05538121651831       0.99362325321583
H        -1.47015955281596      -0.50167726654499       0.58801941877011
H         1.21760560128899       3.30050422996637       1.16542343772166
H        -0.37179068387990       2.74717459023591       1.71312505788856
H        -2.54642102514756      -1.54027839340204      -1.41178538007369
H        -1.81687708822391      -3.09717012407135      -0.99096500918854
H        -1.44277389710472       3.91681264429009      -0.22776554744905
H         0.15049547804738       4.47737071965153      -0.76230298711412
H        -0.51399999379018       5.03867068435201       0.77991731865270
H        -3.78109777133772      -1.53244291007023       0.76595102312574
H        -3.05471057235172      -3.09387118006115       1.18068719950305
H        -4.16401620166032      -2.97036133194221      -0.19425574443045
C         6.18942828148481       0.76495885517482       1.72246196570402
C         4.84723747057516       0.27878369068859       1.12683400866012
O         4.89776116878835      -0.52704976325519       0.17740919913222
O         3.80849164949414       0.74052567929735       1.65729951647997
H         6.22041368138780       0.50615977271247       2.78042939741486
H         7.02582406298380       0.30097663999103       1.20373153853474
H         6.24771302375306       1.84845202692597       1.62920100921940
