31
C9H16F3NO2 optimized with DFTB in AMS.
N         1.18643429705708       0.27225171097801      -0.23378967780968
C         0.05032983546491       1.24412262658951      -0.28011904135714
C         0.83667913644111      -0.97457694189859      -0.99238469309716
C        -1.25945871635136       0.64307183173291       0.21868687673711
C        -0.46040134887902      -1.60869447731511      -0.51519549514473
C        -1.61621407218642      -0.61177519923268      -0.57779321511143
C         1.56625587338795      -0.05242934305021       1.16943350829686
C         2.36983444294113       0.89996913240193      -0.89042284941781
H        -0.05726038077001       1.55665431027414      -1.32266231867537
H         0.33459331820101       2.11144070373238       0.32090316970831
H         1.67613758113837      -1.66213964133134      -0.86470997735806
H         0.76157116915889      -0.69671850750183      -2.04641327103139
H        -2.03848577210740       1.39996809529285       0.09535183238893
H        -1.19039314980559       0.40710000495190       1.28401584574592
H        -0.35009391687886      -1.99234337674388       0.50254735929412
H        -0.66617162486429      -2.45930700062957      -1.16940523405443
H        -2.52140071822086      -1.06312990926809      -0.16521761444996
H        -1.81431459410467      -0.34015882979170      -1.61962991663522
H         0.73245556239709      -0.52494380695661       1.68087866234214
H         2.41795531596537      -0.73175778040969       1.13915807162266
H         1.83820807513776       0.86996000145314       1.67933655755965
H         2.11926912021295       1.13617486381581      -1.92209287809497
H         2.63403148178106       1.80609198020215      -0.34842390446706
H         3.19126192820528       0.18371280578425      -0.86391331717105
C         4.33960715974163      -2.39979235467814      -0.97934217865377
O         5.37565362037369      -3.00754122496378      -0.87531680848677
O         3.64323958503336      -1.73510219207747      -0.19390934158594
C         3.64525602562484      -2.41413745023850      -2.46863961605878
F         2.48343080238281      -3.11857372754512      -2.45563504287522
F         4.38304832598107      -2.89424289781292      -3.46822830659863
F         3.27553615224113      -1.14633199486373      -2.82921552926109
