38
C12H22N2O2 optimized with ForceField in AMS.
N         1.90815170789907      -0.90740341601522      -0.23355947865784
N         3.12205614255044       0.95105447782513      -0.12086228185078
C        -0.35960269897028      -1.87444138998753      -0.06644995433226
C        -1.05158572539437      -0.52868677463215      -0.32874772239069
C         1.01579849424322      -1.94806068904260      -0.74189242136063
C        -2.46236596903421      -0.50294578722145       0.26907282251206
C        -3.12008996139042       0.86473781240550       0.05231768598282
C         2.35629288644850       0.17037351142741      -0.90696544053738
C         2.41141883511298      -0.80684617349294       1.01371400697814
C        -4.53370792745279       0.89785609256257       0.62341111045965
C         3.16393333429278       0.34862353603583       1.08343490219547
C         3.75334721065111       2.21326077743776      -0.48308790711504
H        -0.24318033447850      -2.03118141219990       1.02815877594810
H        -0.99055870339552      -2.69859718306965      -0.46518849740939
H        -1.11475766824046      -0.35240503720582      -1.42518620317411
H        -0.45111693048406       0.28995940955913       0.12510892808555
H         0.89151860603495      -1.84107766767107      -1.84213384859801
H         1.46926561382826      -2.94457572622046      -0.55095040224897
H        -3.08047299364831      -1.29164915296715      -0.21397491479654
H        -2.40588646602915      -0.71484864199017       1.35970345976096
H        -2.51506593113163       1.65305309102530       0.55101216176386
H        -3.16715337430288       1.09074177244478      -1.03537819592901
H         2.11191736839957       0.39223344028205      -1.93844759209448
H         2.23437999922764      -1.51322249298626       1.81452213892087
H         3.69171657402369       0.72646592495501       1.94961451873177
H        -4.51291132562874       0.70215381444671       1.71663999712663
H        -4.97854910105674       1.90049900194116       0.45036892087784
H        -5.16947177245100       0.13585602957648       0.12442712216793
H         4.85264309408805       2.13213156105281      -0.35156772119034
H         3.53493250047029       2.46795662267998      -1.54221387826511
H         3.36502956807837       3.02437292307683       0.16798586126626
C        -0.12051400153121       3.77551402657494      -3.29453278958164
C        -0.33761165209576       3.73853950595753      -1.81450885964929
O         0.59053712636723       3.96883152940320      -1.05651591840082
O        -1.44101369942766       3.48278903756113      -1.36080944296281
H         0.19293936615382       4.79589090395726      -3.60014220856629
H         0.67315732020828       3.05144929224834      -3.57412931864303
H        -1.05429903083458       3.51007020946552      -3.83530970592348
