28
C8H18ClN optimized with DFTB in AMS.
N        -0.26438682076380       0.25552834544951      -0.02971851075152
C        -1.23733583032383       0.49374848718084      -1.14613602047410
C        -0.79406154519346      -0.96682242664008       0.64512369569858
C        -2.60100782429862       0.15722820092344      -0.55767886977160
C        -2.31650148153758      -0.82729438225509       0.59010125697974
C         1.10728064951133       0.05925792911969      -0.60474590941172
C        -0.28240684842791       1.41839092119383       0.90102738186083
C         2.17998007863388      -0.24389302650082       0.43467254814032
C         3.51303537208355      -0.47710759234603      -0.27622062327259
H        -0.98232791518398      -0.19238083584646      -1.95685920697283
H        -1.12124606244018       1.52419123516393      -1.49397877334576
H        -0.40431739574346      -1.02747763771323       1.66133393908967
H        -0.45793379677509      -1.83569192154278       0.07444665770993
H        -3.24094056894038      -0.28992614187797      -1.31991276621232
H        -3.09805385830943       1.05361166692824      -0.18196283668838
H        -2.70296859702340      -0.44250039257589       1.53603450253873
H        -2.77458840374852      -1.80092593147995       0.40802987928585
H         1.33885009943845       0.98730670263149      -1.14332974554996
H         1.03643576075906      -0.76346468194480      -1.32154373645443
H         0.09489755654872       2.28544298060768       0.35152781443040
H        -1.30365101712122       1.59629760167203       1.22790744577502
H         0.34501524534335       1.20180295954795       1.76190602169035
H         2.29132194132327       0.59621323214502       1.12461469537699
H         1.91363767567223      -1.13181835250163       1.01716656307719
H         4.29202279033577      -0.67939194307680       0.45816256248589
H         3.44309431648580      -1.32795869813120      -0.95492699897048
H         3.79430403364291       0.40562296828946      -0.85021165206686
Cl        0.59838250265251       3.03288997427962      -1.71149941649695
