34
C10H22ClN optimized with DFTB in AMS.
N        -0.89595946648701      -0.31468641644070       0.12942027228427
C        -1.99390854620473      -0.45605039643918      -0.88770916656353
C        -1.40669017700013       0.77523904877217       1.02172301221072
C         0.37581040327738       0.11169212584246      -0.55395134133025
C        -2.45938636999226       0.96683989958394      -1.16623068078394
C        -2.08054245887161       1.77564526084237       0.08369233941452
C        -0.72155396187469      -1.58445453442467       0.90002836486046
C         1.59334420938122       0.22174990352840       0.35722319584453
C        -0.25085725677486      -2.74828857707433       0.04000235893895
C         2.76163489002424       0.79712253221563      -0.45527198085888
C         4.02857037452631       0.89374875398067       0.39089303222638
H        -2.78550302114159      -1.06093006510610      -0.43920769133205
H        -1.59968478508146      -0.93150880912114      -1.78966436562112
H        -2.13166276474054       0.32982372967218       1.70725716153322
H        -0.58592760121018       1.20099282489962       1.59816475585081
H         0.56550660714839      -0.60169629127900      -1.35821492547917
H         0.16917251287571       1.07286450991312      -1.02527463642171
H        -1.95389066110028       1.34915212752429      -2.05622892292415
H        -3.53528807392341       0.98325813675832      -1.34569598347551
H        -2.95752011700293       2.20865766483961       0.56847583627635
H        -1.39729211050231       2.58878985991772      -0.16868542988036
H        -0.01137669544132      -1.38730505809014       1.70662274554075
H        -1.69188229889872      -1.82007883241284       1.34568600618463
H         1.39342119163725       0.87367280886848       1.21343736970902
H         1.87817887218467      -0.76173158905736       0.74228124447992
H        -0.23291253967640      -3.64230746086702       0.66276848771280
H         0.75111333961682      -2.58087196800021      -0.34915415823953
H        -0.92724994487912      -2.92097149899962      -0.79465791591649
H         2.94721638825240       0.15665879139391      -1.32235339826935
H         2.49041248090407       1.79112028173227      -0.82410012669372
H         4.32716319088764      -0.09253721175949       0.74877100024471
H         3.86647915207472       1.54216596652152       1.25326815616495
H         4.84070567036662       1.30677576878909      -0.20682736200952
Cl       -0.35263141865390      -0.22632940932398      -3.51962582747771
