65
C19H25F18N2P optimized with DFTB in AMS.
N         2.61819789580213       0.69192962818445      -1.78649852906394
N         0.62253703929570       1.11040420057328      -2.47281451410496
C         3.88576530712687      -0.00044707299199      -1.56872230852506
C        -0.65570119320580       0.95717340123276      -3.16490022009837
C         3.84632692218955      -0.75406787207834      -0.23489502440001
C        -1.37367246034850      -0.31033736111152      -2.69455503296674
C         2.76615313921392      -1.83900044990209      -0.22492805460621
C        -1.56024507614064      -0.34998659684386      -1.17606439863034
C         1.65765205261815       0.28485194347229      -2.60963983617692
C         2.18483314044229       1.79268762875972      -1.09758100992793
C         0.92322488166878       2.05619156836897      -1.53100505245939
C         2.71315594591473      -2.57697118943042       1.11490882531435
C        -2.25990168256674      -1.64372731451951      -0.74681092072045
C         1.62074783210805      -3.64474106403924       1.09868322182926
C        -2.40785839782996      -1.71611982240464       0.77105233430564
H         4.68362216431462       0.74680249794312      -1.56651365760051
H         4.03461660664056      -0.69069542238000      -2.40168703150757
H        -0.45318370937088       0.89800224847187      -4.23787277096919
H        -1.25063974344870       1.85043933019402      -2.95878271594109
H         3.67396424491732      -0.04032750102752       0.57752831317371
H         4.82989542971938      -1.20766869437079      -0.08418137570267
H        -2.34671188072934      -0.34183215069692      -3.19270145957854
H        -0.80322230122293      -1.18323590215885      -3.01806004372021
H         2.96904828798191      -2.55533098396804      -1.02484719717084
H         1.79065603747179      -1.38304849575573      -0.42507187230597
H        -2.14617153805054       0.51800614904586      -0.85237624894609
H        -0.58093244196451      -0.29285796164030      -0.68790239483869
H         1.71007063400562      -0.55272549509580      -3.28042146911039
H         2.79944361194172       2.29474235615562      -0.37116408243042
H         0.22928219879565       2.83009517589623      -1.25336261415492
H         2.51712376132394      -1.86175983160968       1.92219689761289
H         3.68242383537403      -3.04712152309045       1.31154303963134
H        -3.24791412153406      -1.69708996637944      -1.21548161315547
H        -1.67503484237012      -2.49940864341205      -1.09562601972068
H         1.80642418125102      -4.36594603348322       0.30254295857240
H         0.64439955499851      -3.18822088636005       0.92973878701627
H         1.59833358916105      -4.17277802487980       2.05212213727026
H        -2.99686306016964      -0.87568451775583       1.14197583188686
H        -1.42822598873965      -1.69227174418452       1.25113447883180
H        -2.90849268593480      -2.64272851523968       1.05127998794890
P         1.96126954059570      -3.08223294828410      -4.58105173374436
F         2.82913401675072      -2.30587016629768      -3.31472660275546
F         0.76825489987460      -1.85040939128849      -4.57717581293758
F         3.10341074750702      -4.29858622624885      -4.58323312423916
C         3.04545926508092      -1.86749103118486      -5.68684041078785
C         1.01306282037807      -3.86712196267438      -3.01051738003645
C         0.99050613602761      -4.05409705586413      -6.02012802942504
C         4.59110675748881      -2.01323697391013      -5.72352865954897
C        -0.29351863829343      -4.71219094001027      -3.01172364649291
C         1.63931813718631      -4.40637599820405      -7.39612046910707
F         2.84752436248371      -0.60795994562788      -5.21278905801413
F         2.59999580004487      -1.86501154982358      -6.95282311946423
F         0.67895233933754      -2.78236719749790      -2.25559281706887
F         1.91022641491080      -4.56205388857412      -2.29500174880288
F        -0.18758804200141      -3.46756953927931      -6.28636828020710
F         0.72264397012189      -5.24151223314293      -5.43540582627870
F         5.10625802438858      -1.12097421061482      -6.57347408392754
F         4.99735999527305      -3.21555408922083      -6.09679140620836
F         5.10191320308469      -1.75128737084057      -4.51552595030335
F        -0.86894435298069      -4.61528026572334      -1.80318838452896
F        -1.17232629925208      -4.25297691257752      -3.89898691247792
F        -0.07198961748394      -5.99760108174329      -3.23554756249785
F         1.27358828574090      -3.53915453381793      -8.33328469865991
F         1.25700328522732      -5.61800433043783      -7.79230929983310
F         2.96918318115800      -4.40711819459912      -7.31701171221238
