37
C13H18F3NO2 optimized with DFTB in AMS.
N         1.97759792617620       0.34805064232817       0.03208417043577
C        -1.79380001695825       0.30925272686401      -0.60470764081649
C        -0.47572200157782      -0.02189757796195       0.10014665100031
C        -2.97880698201481      -0.34931181414052       0.10806487462054
C         0.69789814369244       0.68209490895037      -0.59271031538473
C        -4.30039882386999      -0.03045152491103      -0.59760311874340
C        -5.48377825867427      -0.68245411619804       0.11572843781093
C         2.51963223042702      -0.89307595922899      -0.18233625178635
C         2.41299194018870       1.14344994431199       1.11624458113029
C         3.69306837146662      -1.25949921437931       0.37897610795212
C         3.80639554353235       0.85141970931030       1.53059784411453
C         4.37921858458906      -0.32347840250318       1.21726995186082
H        -1.75105125465784      -0.03606243619977      -1.64380682960724
H        -1.93556248905025       1.39556088476907      -0.61973346175370
H        -0.52760740114084       0.29483644569861       1.14450839756465
H        -0.30798533298680      -1.10310249218463       0.08574793200647
H        -2.83063148335745      -1.43440260857166       0.13442223277185
H        -3.02163842751060       0.00661929410812       1.14283217806645
H         0.56920576667896       1.76786195129463      -0.54581165243947
H         0.74613610576710       0.38507754827152      -1.64582613315070
H        -4.44558533166215       1.05491695709824      -0.62538280761322
H        -4.25686051331310      -0.38802644577911      -1.63221168106499
H        -5.55617686366010      -0.32224272141127       1.14284057404426
H        -6.41222144067226      -0.44230832869350      -0.40296730159141
H        -5.36751152502289      -1.76701505261785       0.13617007950225
H         1.98865006744134      -1.51927495163824      -0.89022515210770
H         2.22077089266991       2.20787044960452       0.93757519597953
H         4.12956630678180      -2.22480811720200       0.16449160166955
H         4.28779481270090       1.59355318117247       2.15356255100682
H         5.38084500641628      -0.56032466878204       1.55727652041600
C         1.26299647152385       1.75956782091158       3.17706937939545
O         1.47786995191042       0.81391462857524       2.31436816762712
O         1.71247107125119       2.86836012213790       3.18428484049061
C         0.24181556776851       1.26352275449222       4.26541107840475
F         0.15675946694887       2.11754802010730       5.27808737900687
F         0.58853020044567       0.07095090088697       4.74935386152121
F        -0.97402417754770       1.14522568820986       3.71659515466027
