46
C14H29NO2 optimized with ADF in AMS.
N         1.28933989106975      -0.59719933711260       0.11044927135843
C         2.44139486924156      -0.33302106324709      -0.87535305066598
C         1.86682595348959      -1.63782211184264       1.05678091127088
C         0.96082124916356       0.65066891804152       0.90314288331580
C         0.09847819785426      -1.12493894165114      -0.65227751432304
C         3.39742767434151      -1.53009564222284      -0.75539741482429
C         2.69249056283473      -2.54235161378511       0.16343608294267
C         0.43224125650831       1.79751506570839       0.06405770861525
C        -1.15411650277020      -1.38714155268753       0.16793163469226
C         0.46874495495360       3.09157223047814       0.88180885393824
C        -2.24776081913880      -2.00701550025790      -0.70704406626811
C        -0.06869266366738       4.28326422558601       0.09574397472392
C        -3.53969353603843      -2.25229620469206       0.06852175277353
H         2.92982465619223       0.60946115339998      -0.53931024441820
H         1.99748237223820      -0.21920681766960      -1.87322885227612
H         1.05396941191217      -2.11453363388587       1.61836112116724
H         2.54561967426184      -1.05776658281713       1.71017308427079
H         0.25111444737708       0.34864644254823       1.68926933684955
H         1.92344032987625       0.92610638352792       1.36371557921083
H        -0.11408890101187      -0.38221404100981      -1.43553440992093
H         0.43639905482466      -2.04523318871242      -1.15218557394774
H         3.65403063317814      -1.95794685100686      -1.73513522953290
H         4.31383837756261      -1.17721679501359      -0.25919743739851
H         3.40600651014050      -3.12589009000601       0.76398476614381
H         2.06745720297757      -3.25333560532627      -0.40345246835501
H         1.08266705522235       1.93629773809665      -0.81634888392125
H        -0.59600930375252       1.60574935567014      -0.29484243850924
H        -0.94089690054312      -2.06876153030524       1.00858890503364
H        -1.53003327870076      -0.44446539420160       0.59937939576661
H         1.51975075090491       3.26823610810418       1.16888517786394
H        -0.11544929213604       2.96010366124920       1.81163965128756
H        -2.45023218676866      -1.34077110486047      -1.56516311069244
H        -1.87934679255617      -2.95926118297331      -1.12969155402676
H        -1.11927684801251       4.12767595436453      -0.19949643860047
H         0.52248776990626       4.44068135510288      -0.82070103033011
H        -0.01847114663735       5.20909844574907       0.68838665750603
H        -3.94401952230016      -1.30887617829333       0.46835120833795
H        -3.36654876051407      -2.93119971267576       0.91852072154093
H        -4.31199795599014      -2.70486035979144      -0.57151166221719
C         5.48894725724453       2.21035922091221       2.02305499303236
C         4.30121997682601       1.49183297366683       1.37133417110236
O         3.72272999853767       2.07980590944454       0.40458729327064
O         3.99725037588760       0.35153736067941       1.84924139113712
H         5.51061741423102       3.27485697342606       1.75276263520407
H         5.45564381368266       2.09111735250710       3.11568515286755
H         6.42396727659704       1.74326431948464       1.67424506450435
