36
C10H16F2N2O4S2 optimized with ForceField in AMS.
N         1.74645914030978      -0.02297903589820      -0.50178855909132
C        -0.63692210537654      -0.01161619632003       0.09246971949484
C        -2.07349738332208      -0.03741873332527      -0.44082551413178
C         0.38421678893453      -0.05864300069453      -1.04785834824655
C        -3.08095751399625      -0.00107728770223       0.71377363246837
C        -4.51702616476029       0.01049968623460       0.19999726422874
C         2.37689983803445      -1.19166867518523      -0.17205150386343
C         2.36126290727657       1.18089673176877      -0.28907338760907
C         3.65948668181804      -1.17377502302080       0.38136360632473
C         3.64366790437223       1.23426808418472       0.26233686029602
C         4.29426955294080       0.04817182884201       0.59858238389416
H        -0.47425925339744      -0.88534485459839       0.76118745824732
H        -0.47869522378788       0.91769724877030       0.68311544535210
H        -2.23041248474729      -0.96302818827643      -1.03757729710589
H        -2.23587802647844       0.84281573630029      -1.10150015961199
H         0.23558993645327      -0.98317528312324      -1.64987107942976
H         0.22302564415275       0.80207431422358      -1.73514616955651
H        -2.91398352566522       0.91055267699845       1.32504409052085
H        -2.93782409874659      -0.89115932703307       1.36461562895866
H        -4.69136512611199       0.90207006130614      -0.43931959622397
H        -5.21739889664369       0.04976019102423       1.06094317019177
H        -4.72462461404538      -0.90990559833021      -0.38597415022764
H         1.88605935690379      -2.14526418037465      -0.32750036691374
H         1.85791360000628       2.10791877442550      -0.53713022833169
H         4.15394129822395      -2.10005137941766       0.64394499514879
H         4.12583446760661       2.18834600853652       0.43177158726633
H         5.28646701630370       0.07597290253430       1.02991251333217
N        -2.94712550460872       5.60656319522915       2.29856023741153
S        -1.87945631349174       4.48419324539142       2.82464703440401
S        -4.21792007791265       6.06607702802223       3.22104133014712
F        -2.62032396313748       2.98449175024447       2.84204536035299
F        -3.66973033466290       7.03318445778495       4.47263628397101
O        -0.69243076801579       4.44658341943541       1.90459795872130
O        -1.43051315255526       4.81844341642137       4.21947950954349
O        -4.89601666114585       4.85662802001108       3.80129519522183
O        -5.19410641292728       6.84132975351043       2.38275080594519
