22
C8H12ClN optimized with ForceField in AMS.
N        -0.50725236400986       0.00191784271359      -0.40676868730349
C         0.91979767408863       0.02147335814277      -0.74995131775972
C         1.76561168528619       0.03309813351745       0.52657497889814
C         3.25572839619973       0.05767355529991       0.20356867795008
C        -1.17780094436419       1.18084780171929      -0.22424422609902
C        -1.14993766215985      -1.19473376857178      -0.23935637656213
C        -2.52749950010859       1.18034805155567       0.13414739123338
C        -2.49928853269944      -1.23030219284092       0.11902354438774
C        -3.18946772233326      -0.03400182232622       0.30733041228718
H         1.17938083751436      -0.86950273872769      -1.36505254590382
H         1.15402195970829       0.91767745888483      -1.36749101079150
H         1.53957497932403      -0.87407393117171       1.12818830550145
H         1.51165757191290       0.92904227169368       1.13358545117155
H         3.52755546345444      -0.82003545930560      -0.41969837127435
H         3.84091771962197       0.02033918836126       1.14671574020376
H         3.51661845618467       0.98921851609625      -0.34229019232970
H        -0.66912288362034       2.12994098888079      -0.34747937462377
H        -0.61913418454708      -2.13009289657930      -0.37411072281933
H        -3.05338070758048       2.11471806607142       0.28185307239971
H        -3.00331765394618      -2.17838923480681       0.25520164906381
H        -4.23359725845347      -0.04792144770809       0.59092029976896
Cl        6.14074582802755      -2.31087428529877      -0.04927169739893
