26
C4H12F2N2O4S2 optimized with ADF in AMS.
N         0.55461473892996       0.16805329592882      -0.11241467270760
C         0.42972322038521      -0.76828456269610       1.05594750428871
C         1.40116306619215       1.34955605230431       0.27751076496501
C        -0.80415255905260       0.64935897011907      -0.51422760560568
C         1.18660666907171      -0.56039684834474      -1.26807615233308
H         1.42842466517017      -1.12898534055311       1.33139343957343
H        -0.01648756538514      -0.21938097499385       1.89451434286971
H        -0.21437939565563      -1.60588370877613       0.75973599754366
H         1.49614846350135       2.01005649522227      -0.59295451476419
H         0.90298717997914       1.86697621868392       1.10730466093893
H         2.39990653611861       1.01015416365246       0.58339631750795
H        -0.69732954709373       1.33752661063199      -1.36207684230669
H        -1.41476143449250      -0.21419793361294      -0.80563550573347
H        -1.26409943255583       1.16867381073840       0.33579646682743
H         1.32205731696169       0.14840874988065      -2.09346937633432
H         2.15927150910856      -0.95434950341080      -0.94612756797271
H         0.51497118474359      -1.37701735199799      -1.56276907566318
N         4.61819004256122       0.55994942913589       0.79183218928769
S         4.26236960115086      -0.91222484321391       1.31441216353050
S         5.27869743081330       0.77072094385127      -0.66951367560772
F         5.70510571860290      -1.57689560830172       1.69573105879349
F         3.89147402336134       0.73472626709596      -1.64834944608259
O         3.55898938907366      -0.76081895532861       2.57867387741258
O         3.69349238388149      -1.82177256693829       0.31996846468026
O         6.07594357493725      -0.32545763138890      -1.17587625718582
O         5.70080958379125       2.14977624861208      -0.77081638042227
