42
C12H23BF4N2 optimized with ADF in AMS.
N         0.14409035136514       2.49946392788440       0.41687993557366
N        -1.89098527365641       1.75486146353363       0.35846808046283
C         1.52331712810931       2.77265979473137      -0.01692169367093
C         2.49595491480936       1.66820514687378       0.39260683201641
C        -3.10670476612308       1.09549239205475      -0.14489844821075
C         2.15789014403389       0.30272410624162      -0.20438442821793
C        -3.12407957006456      -0.40639041203961       0.12762705132657
C        -0.72644560406818       1.77983469881426      -0.30044989579858
C        -0.47832612196602       2.94729164554616       1.56500745978860
C        -1.76122853634560       2.47899668646144       1.52834229311950
C         3.23465117923019      -0.75131860839154       0.05029422134363
C        -2.00861193639729      -1.18125150557697      -0.57531834974954
C         2.85948318326007      -2.10340381395032      -0.55299356075842
C        -2.18715752586360      -2.69265267889791      -0.44882632292895
H         1.80444513563331       3.74211450481655       0.41812052228917
H         1.47508377139262       2.87725223485143      -1.11192099826783
H         3.49256576397247       1.98754100782451       0.03885748127067
H         2.55600141205552       1.60418258618066       1.49456036380530
H        -3.95690816700515       1.59896458540615       0.33728116698001
H        -3.13475875115886       1.30105121734428      -1.22704868197745
H         1.99206650871011       0.41077428129751      -1.29088616999075
H         1.20644089714439      -0.06301644873110       0.22298022526717
H        -4.10302887654984      -0.77249977232387      -0.23130862222666
H        -3.09742175261220      -0.59448916944970       1.21697158563471
H        -0.51769238783102       1.33013487478763      -1.26690523626660
H         0.02643679019696       3.57817130545907       2.28613558982024
H        -2.59033891648035       2.62279298919843       2.21011870374586
H         3.40322798304650      -0.85782952624287       1.13765167285520
H         4.19116998693625      -0.40492206501903      -0.38105990945313
H        -1.97830792025535      -0.88937492728978      -1.63993319990691
H        -1.03242237257721      -0.89981217310612      -0.14488664177581
H         2.71775041870854      -2.01706239570384      -1.64192284234607
H         1.91487530302912      -2.47619799085206      -0.12351286257056
H         3.63675751375990      -2.85951309664688      -0.36903774083631
H        -2.19858566800677      -3.00826984440307       0.60714511227202
H        -1.36994658849873      -3.22820168626677      -0.95433430628954
H        -3.13531569486179      -3.01674697195174      -0.90678760810933
B        -0.62117504100532       2.25900861289573      -3.39218448348918
F        -0.68816336740629       3.43583033059676      -2.58526343636970
F         0.54109448026460       1.50549353869925      -2.95436122205155
F        -0.54350136036413       2.55416862782416      -4.74610834931947
F        -1.77163416726050       1.44116866011963      -3.09173745828960
