57
C15H32F2N2O4S2 optimized with ForceField in AMS.
N        -1.08857638091905       0.82737634939229      -0.18290712868847
C        -1.57405179725480       1.86693810186769       0.78307580254847
C        -2.06442958118576       0.73482225229754      -1.31753358390445
C         0.21234031385992       1.29358340593832      -0.77627267261396
C        -0.93254005815040      -0.48780519567152       0.53189567138750
C        -3.02053677962715       1.64397492322648       1.27238875517301
C        -3.50994450508228       0.44469950783166      -0.88054629225200
C        -3.99240294537735       1.50515706851231       0.10370336968418
C         1.41394480849733       1.37300448606135       0.19918121135847
C        -0.34599271373167      -1.64607676454956      -0.31194966785737
C         2.66246668977026       1.88924568750007      -0.52981659435636
C        -0.21412539026441      -2.91718201971071       0.53664650752275
C         3.87777547013987       1.93085209284045       0.40423056462030
C         0.36675040821554      -4.07337666319104      -0.28571071710582
C         5.11501897858260       2.44479837558614      -0.32705495692906
C         0.50354716794269      -5.33307064755425       0.56246143731815
H        -1.53202366818014       2.87964125022728       0.31961488841393
H        -0.92860268537901       1.90269813231676       1.68689993062164
H        -1.75524651881726      -0.02794224879028      -2.06159784004681
H        -2.08532771496491       1.69729745161399      -1.88112125184648
H         0.08156738946882       2.30605718409978      -1.22464521096278
H         0.50290328978107       0.64234735174969      -1.63082836207524
H        -1.90381793969818      -0.84008102568226       0.92928033881912
H        -0.30040394653460      -0.35750889535799       1.43745951560259
H        -3.32865636822431       2.51626820147992       1.88861060439903
H        -3.08417458233450       0.75246970108940       1.93031055187327
H        -3.60348006122972      -0.56938106049517      -0.44070679137354
H        -4.16676453587252       0.46488813692229      -1.77701426323133
H        -4.08443934818101       2.48236806750517      -0.41971935151034
H        -4.99724314444934       1.22509277489177       0.48721377360292
H         1.19057946242350       2.06298844293298       1.03829422343033
H         1.64916704344816       0.37095492461338       0.61256438055851
H        -1.01013446890171      -1.87571131144481      -1.16945106098884
H         0.66036782452587      -1.38462492113948      -0.69706373980564
H         2.46380025022412       2.91228094943667      -0.91919934919915
H         2.88798923713785       1.22201399272152      -1.39109191024984
H         0.45140922479073      -2.71350952495855       1.40462506291987
H        -1.21645688874383      -3.20892112235406       0.92160241066493
H         4.08823550119301       0.91010273278196       0.79184853512465
H         3.66573636777670       2.59878518504981       1.26740945676059
H         1.37003222931575      -3.79136917301728      -0.67337441340770
H        -0.29731708635957      -4.29086429637156      -1.15062949289126
H         5.97911414902379       2.46271594822634       0.36993846324101
H         5.36246032964218       1.77972699057920      -1.18191136504723
H         4.94081184972622       3.47536913959447      -0.70352028133072
H         0.92264057148028      -6.15559289783560      -0.05438290714996
H         1.18850710451656      -5.14413911814831       1.41586073030876
H        -0.48917129345102      -5.64847531540625       0.94933648884894
N         2.54732351356676      -7.70090089712093       5.41589448512242
S         1.76317679520429      -9.00271532731116       6.02153610703733
S         2.58401351591857      -7.40719001813969       3.80751056797523
F         2.70272524707926     -10.36691735250375       5.78146728216777
F         1.04920060135650      -6.97898495043348       3.29720806056919
O         1.53186070139032      -8.81053795758791       7.49327223028335
O         0.44656471456359      -9.18686038749519       5.31964995485623
O         3.01413587629632      -8.64490080778710       3.07111374475425
O         3.54254429945607      -6.28661351482879       3.52043087525564
