51
C13H24F6N2O4S2 optimized with ADF in AMS.
N         0.28744215565818      -0.73933347685326      -0.38612611472884
C        -0.96221823098285      -0.00418102415455       0.05257519312228
C        -0.11145678795607      -1.86516235677904      -1.33696762478748
C         1.01147082466495      -1.27748237848505       0.83712610673673
C         1.17876119276172       0.20194780493358      -1.17949961322635
C        -2.01261235303200      -0.91697011741666       0.66824448510961
C        -1.14002614244188      -2.80540093438080      -0.74075956604719
C        -2.38898799793908      -2.05306544523121      -0.28320778124493
C         2.35511032902364      -1.92784135203698       0.56778227735426
C         1.80297753204923       1.35237820260407      -0.41132195152672
C         2.89448289215035      -2.53428282331360       1.86295210143314
C         2.70212854830993       2.13884879657572      -1.36940347638495
H        -0.64724659150903       0.78457775985537       0.74974571255906
H        -1.35973925769104       0.47174701701133      -0.85866136894749
H        -0.51980523457653      -1.35589374138957      -2.22523992750339
H         0.80458451354459      -2.38951607213367      -1.63537679921394
H         1.10712563430979      -0.42564118874845       1.52888283037257
H         0.33416368467801      -2.00438737667091       1.30164766470879
H         1.95276291815441      -0.42825798127213      -1.63802210446451
H         0.54375689926095       0.58317027655445      -1.99571220580265
H        -1.65815010460151      -1.31813400858228       1.63251129660675
H        -2.88998363644450      -0.29009380883676       0.90062360362870
H        -1.38035553726948      -3.54370547796023      -1.52296365685801
H        -0.69873979288857      -3.38887637264022       0.08431390522873
H        -3.10338086343373      -2.73634564767286       0.20205031205797
H        -2.90053949318018      -1.62770390378494      -1.16669482288243
H         2.25788123930601      -2.72066244548083      -0.18690574302078
H         3.07502703568149      -1.19510080492183       0.17328076304814
H         1.03681952613506       2.02211966646684       0.01418474926828
H         2.41532633937799       0.97407399204046       0.42265170178184
H         3.87974703145699      -2.98459898043817       1.68052751312889
H         2.22896120892140      -3.32947618276987       2.23464101552326
H         3.00675776173364      -1.77844553666056       2.65678540353520
H         3.20101800136480       2.96616834341503      -0.84533301878188
H         2.11983479590754       2.56351649949306      -2.20170908960171
H         3.47608158518012       1.48485788523117      -1.79952545928952
N         3.66704320902786      -4.23783526367937      -3.40143363970163
S         2.44291127840520      -5.03129133366893      -2.72515150166330
S         3.95606764824489      -2.67531924254130      -3.22285749194886
C         1.14336095460690      -5.01603039352426      -4.09377316302538
C         5.18244117068579      -2.63666099581579      -1.78111746587922
O         2.79970119321739      -6.43207392357897      -2.59098640665828
O         1.75547918244167      -4.35962048947906      -1.61265981346587
O         2.83280937738861      -1.86346215534833      -2.73161221855766
O         4.73433579744306      -2.18635800027331      -4.34713689479922
F         0.00397516422762      -5.60056370068514      -3.63201394531207
F         1.56231552274196      -5.69134412950685      -5.18128480868332
F         0.83409183554863      -3.74330980983531      -4.46398365109819
F         5.27895396374117      -1.35783215829951      -1.30882562957222
F         6.40876710937079      -3.03853442159813      -2.16490459262075
F         4.77248498892412      -3.42606849863239      -0.75575388370548
