71
C21H29F18N2P optimized with DFTB in AMS.
N         0.84998854178075       4.18523753842423       0.57948816926439
N         1.74567523031191       3.19011323924521      -1.10424413003913
C        -0.85696516613121       3.84802987708610       2.30371234023514
C         0.48258061450146       4.50136306487991       1.95326567361892
C         2.18166686931201       0.82315844419065      -1.59928728631925
C         2.56791165625369       2.27307667523045      -1.88995724927836
C        -0.79688689639198       2.32088377062448       2.20062484068085
C         0.69810634961011       0.55501311546587      -1.87331876167397
C        -2.14921268235029       1.68030507474186       2.52660662676301
C         0.30403517579520      -0.86591459345114      -1.45918838319501
C         1.64603110063485       3.17945516435404       0.22244358032617
C         0.44191508629398       4.85722954292259      -0.53887020189451
C         1.00937594337360       4.22817132621167      -1.60225048995163
C        -2.08134220631851       0.15673637833112       2.38003585127517
C        -1.18913982429004      -1.11549207753059      -1.69386331712613
C        -3.43381699240937      -0.49356300866152       2.66338611631971
C        -1.59896849487531      -2.51411174530157      -1.23663603951676
H        -1.11552466181012       4.14057486101051       3.32477932526702
H        -1.63150279872411       4.23422713498376       1.63382964685861
H         2.41283745328440       0.58852413156420      -0.55587844023797
H         2.79941616759054       0.17898393065918      -2.23057032906771
H         0.41785082945190       5.58802494156663       2.04403736534850
H         1.28216483273907       4.13640013293650       2.60274213224142
H         3.61298361029113       2.45589037680666      -1.62496544432777
H         2.41865791879725       2.52029439509988      -2.94308307909472
H        -0.03305991664862       1.93949567418784       2.88661153245698
H        -0.50337441246028       2.03661728755510       1.18350927768731
H         0.49016820874726       0.70279525275611      -2.93821797114271
H         0.08940777901596       1.27357546151438      -1.31244630434091
H        -2.44014288958915       1.93948155399921       3.54974360770832
H        -2.91229838217870       2.07986591579204       1.84986255607071
H         0.53509845733457      -1.00922570255816      -0.39779857379003
H         0.89303235404074      -1.59068890008433      -2.03046852816492
H         2.15771346163402       2.51450127791287       0.89580890791282
H        -0.19076602554204       5.72582549124963      -0.48786721954966
H         0.96845378128103       4.44558432054729      -2.65495342175426
H        -1.76361981807506      -0.09447962825301       1.36197088780045
H        -1.33127198540251      -0.24211811607770       3.07106219293527
H        -1.41514532259700      -0.99751206679038      -2.75883958392738
H        -1.77206891920014      -0.36809875664506      -1.14388252072011
H        -3.76154564332169      -0.26743310720422       3.67873333337597
H        -4.18768410746778      -0.12750102894777       1.96512617337426
H        -3.35646951876872      -1.57548733250578       2.55562276062814
H        -2.66384262040906      -2.66690792087144      -1.41226994228745
H        -1.40069755397834      -2.64094462329921      -0.17139958333181
H        -1.04283010434157      -3.27434497209693      -1.78637234676650
P         5.82886892397966       5.71382575602087      -0.09766074856077
F         6.86624748330374       5.42133690788356       1.17856896207606
F         6.40359451894616       4.34722197128113      -0.88827164448989
F         5.15717689863905       7.04512267900509       0.68260785771260
C         4.52568554675770       4.60122123635387       0.88359740581639
C         7.21883558587979       6.86911301666611      -0.82980667378133
C         4.56756697460237       5.94433083777577      -1.65133246694615
C         4.70483744268502       4.33742227381632       2.39823238358828
C         8.41915680829982       6.20003344313359      -1.54997372170142
C         3.55672062140300       7.11716081892071      -1.76986766295469
F         4.37028426326473       3.36267994676350       0.34407210084579
F         3.31018901590779       5.19788599799952       0.79074210491122
F         7.73066868960978       7.58870061268463       0.18058467918080
F         6.67601859209281       7.74629349271298      -1.69545140660933
F         3.78528780022689       4.82793102882161      -1.73752488788834
F         5.30059878602111       5.95642311035607      -2.77876947307316
F         3.57094269282873       3.73214581797546       2.84339234305818
F         4.85238010603458       5.44700594932839       3.10104197922592
F         5.70710046690794       3.51424121655878       2.65812834729774
F         9.33442401262220       7.11726882257973      -1.87140822393977
F         9.00369089111064       5.29787152651677      -0.76758021657901
F         8.03696058563365       5.59885074214321      -2.67357763695015
F         2.96039173648910       7.07676982159984      -2.97116056390804
F         4.11006393883141       8.30873305374762      -1.62779745046063
F         2.58023855142859       6.99902657598372      -0.85978504922074
