23
C7H13ClN2 optimized with ADF in AMS.
N         0.01064506079029      -0.45268016287099      -0.53978952197130
N        -1.99075654021228      -0.39778854819288       0.32822413721546
C         1.30102798141883       0.01400825000852      -1.04397167645160
C         2.31337910973016       0.18374349412293       0.08515557576041
C        -1.01879464498454       0.36484658603461      -0.22646770665669
C        -0.23934979586558      -1.70821057749641      -0.00554242031041
C        -1.48500433045793      -1.67042548518109       0.53894140965315
C         3.61130487286487       0.80434631517564      -0.41825349638670
C        -3.14240092917326       0.18623633217891       0.99691610269584
H         1.11614177020131       0.97871367281452      -1.54163352423565
H         1.64528937830351      -0.70019628591280      -1.81117254424436
H         1.83951425591606       0.81693609994977       0.85740485038570
H         2.51177428933664      -0.80180151552185       0.54221901778268
H        -1.15519074315864       1.36521257187476      -0.61076578844517
H         0.47979916676543      -2.51398695426512      -0.07444598406217
H        -2.06277622989548      -2.43417934705759       1.04312554363408
H         3.43006625897298       1.80609116530231      -0.83995232862362
H         4.09133665637847       0.18725636502651      -1.19581076834211
H         4.32453926063022       0.91870878449282       0.41082187287776
H        -3.74586848445222       0.75105885020894       0.27448391063322
H        -3.74774488671583      -0.61943088682636       1.42661942893653
H        -2.74866655911115       0.86145614143171       1.77773546266298
Cl       -0.33575091328186       1.83571509800316       1.76239337689197
