45
C13H23F3N2O3S optimized with ForceField in AMS.
N         0.26346980922917       2.29041096222399      -0.25174561972006
N        -1.82035912572222       1.51296940030027      -0.22372816230139
C         1.65196291395941       2.48559196549859      -0.66634886632468
C         2.58448102688822       1.49035633127190       0.04049678287857
C        -3.02680843165647       0.78617726390724      -0.61646679413067
C         2.16766006311492       0.03497395347374      -0.21910688526253
C        -3.10622460439387      -0.57475919422543       0.08973724895432
C        -0.70869497498428       1.68758912365888      -0.96408413528761
C        -0.25403747852829       2.51474533468367       0.97313921686084
C        -1.54701674754684       2.03403175409574       0.98970255003973
C         3.16542953264565      -0.95432037551479       0.38893262815512
C        -1.96184878081142      -1.50651103436198      -0.33479471302931
C         2.69907501523370      -2.39343745523920       0.18181369182243
C        -2.07514759678804      -2.86987810991902       0.33935386287887
H         1.96528060133908       3.52439188120625      -0.42613415478791
H         1.74199416612818       2.35338019384003      -1.76715117380170
H         3.61927739171649       1.65212413495994      -0.33232926443704
H         2.57772162187668       1.69067917582937       1.13423327724573
H        -3.92012104991854       1.39243439200033      -0.35331767557166
H        -3.03910711284524       0.63250095095581      -1.71818383299039
H         2.09351412914364      -0.14164207605218      -1.31487951547681
H         1.17200198098838      -0.14349190976217       0.23809594943751
H        -4.07800774848563      -1.04880081194310      -0.16911010228958
H        -3.08134875166208      -0.42407017938430       1.19122554227715
H        -0.58469309594903       1.31792636222381      -1.97479384528142
H         0.28299333641360       2.95155921298867       1.80497067775056
H        -2.22122764163772       2.02848776554567       1.83474906666412
H         3.26690337981314      -0.76309526373669       1.47952437596852
H         4.16078119324184      -0.82340846309448      -0.08827637514627
H        -1.97885281954664      -1.64637091010595      -1.43757031584633
H        -0.98729337489408      -1.05822130752706      -0.05300801917048
H         2.60152375516344      -2.61546861308285      -0.90235359910845
H         1.71759039156135      -2.55661328067638       0.67708324468302
H         3.43973322809163      -3.09281381893986       0.62307024477999
H        -2.04519266223490      -2.75761567045347       1.44412691199599
H        -1.22359195430227      -3.51024702369358       0.02551412239740
H        -3.02283450328666      -3.36849902047933       0.04477059976033
S        -4.39701660592361       1.66556854436190       5.20978492469758
O        -5.83766546225578       2.16889684351765       5.03728804602417
O        -3.61228227488187       2.94993359970832       5.51556732306347
O        -3.97175165631902       1.32988752066795       3.77320050727260
C        -4.18457526560565       0.32165728887087       6.41048232597300
F        -4.90634759858184      -0.78223345322027       5.99862714204471
F        -4.63920469455723       0.73294162711567       7.64876079820425
F        -2.84626318622932      -0.01056400849419       6.49863888123431
