43
C13H28ClN optimized with ForceField in AMS.
N        -1.54814624598064       0.08282030652694      -0.06755415702225
C        -2.56372278860105       0.50292219636980      -1.08829554688956
C        -1.78719346449380      -1.35451463552816       0.28643798577191
C        -0.20418790275358       0.19833575024135      -0.73208867364550
C        -1.62448664068725       0.92720526808556       1.17625405525277
C        -4.02220166771743       0.27412979339997      -0.65736633910975
C        -3.22991754031626      -1.65688212979879       0.73980037996666
C        -4.24938269760503      -1.19027965646602      -0.29582242181244
C         1.02186761014826      -0.13745067540771       0.15386311024273
C        -1.26689151463414       2.41402810774792       0.99636285283006
C         2.32109513845607       0.05123095901695      -0.64166967223403
C         3.55223666091524      -0.29707730236029       0.20437008543334
C         4.84297776400198      -0.07984842555426      -0.59505693773874
C         6.07438575132770      -0.44867331117993       0.22781789954843
H        -2.41642423595839      -0.07144525248278      -2.03351979718830
H        -2.43881846726648       1.56769577053656      -1.37504425016313
H        -1.11529101110975      -1.67934685696898       1.10991726618743
H        -1.56549703484955      -2.01294504358549      -0.58506631639171
H        -0.06601067725597       1.22120434920630      -1.14695176251530
H        -0.16074986324616      -0.47444642704530      -1.62037973673888
H        -2.63692885152623       0.89896573076384       1.62365516469137
H        -0.96819326428339       0.51186734367138       1.97190467783218
H        -4.69140463395265       0.54069813047951      -1.50412885786518
H        -4.30233933270054       0.93406813913314       0.18927003885706
H        -3.44244625378394      -1.18806417066414       1.72325417163692
H        -3.33896146090726      -2.75467681322699       0.87801640880983
H        -5.27594590361174      -1.31629236807275       0.11091832421955
H        -4.16200572536157      -1.81689938940209      -1.21101323064496
H         1.06389190963211       0.52756327493870       1.04046030214843
H         0.97203797375891      -1.19131974264653       0.49698853680508
H        -0.21616661354442       2.55184323196575       0.67274691752546
H        -1.95078658583173       2.92094324181371       0.28755834847827
H        -1.37403544596882       2.92588787087853       1.97572114453197
H         2.39353711214176       1.10998785803757      -0.97653666030945
H         2.29995245319287      -0.60208424223050      -1.54220359964007
H         3.48973661237047      -1.36118167688223       0.52349337202657
H         3.56967678036277       0.34470129354851       1.11310957186879
H         4.82547826029721      -0.70594665676782      -1.51403424991937
H         4.92019951367008       0.98743147429154      -0.89823578939067
H         6.03899512754627      -1.52098880805847       0.51626021417548
H         6.98972301863583      -0.27423593794735      -0.37647323788119
H         6.12917756379921       0.17735385881271       1.14394654084842
Cl        0.26282364689106       4.16481458681035      -2.05837462818825
