45
C11H20F6N2O4S2 optimized with ForceField in AMS.
N         0.25869801359614      -0.11546414925550      -0.20228072456611
C        -0.61023632742367       0.69362418906510      -1.11706846021891
C        -0.49967653470524      -1.33505742109299       0.23037873734326
C        -1.97248162074242       1.07445578959687      -0.51353013346897
C        -1.87818199620169      -1.03032165291179       0.85145022789699
C         0.67936082000763       0.67055606209175       1.01018714682020
C         1.44504582009532      -0.55280262322330      -1.01572783674822
C        -2.73151657688617      -0.17497366183492      -0.07983135047061
C         1.54831811630499       1.91125897309002       0.73546720548970
C         2.52771019383063      -1.33653674432030      -0.25238840307443
H        -0.82045236452866       0.11946574777812      -2.05008115420661
H        -0.09684199818882       1.61813398055254      -1.45433726309404
H         0.07345848115880      -1.91379644876977       0.98651488165700
H        -0.66770125384459      -2.01725230889478      -0.63500050736221
H        -2.57210357998866       1.60485265251827      -1.28452835914909
H        -1.85471279437972       1.77536274558951       0.33830390659489
H        -1.76815302183179      -0.53070646727708       1.83637089494466
H        -2.40867444923829      -1.98928117938276       1.03767906446126
H        -0.19686193958787       1.02411095781015       1.58683679838242
H         1.22919347033618       0.02013745278800       1.72240764762933
H         1.11562538152024      -1.19729334098705      -1.86311778331148
H         1.93670417604413       0.32092072453490      -1.49799258598093
H        -3.66719693910919       0.12139680252587       0.44130067305516
H        -3.00998481708122      -0.77015095686885      -0.97742778999684
H         1.81244498576793       2.38251446899629       1.70597335567111
H         2.50016037004340       1.65202816692465       0.23212546867144
H         0.99965491791519       2.67179745063502       0.14598208525534
H         3.31849057901527      -1.64648894957964      -0.96780141340277
H         3.01544082556109      -0.70649804820781       0.51628407090765
H         2.12538403212924      -2.25904249142275       0.21013325197982
N         6.49765636622486      -3.15768230075566       3.16980545972021
S         5.09137731861944      -2.69468591379064       2.46746335820405
S         6.66822273772478      -4.57905836344962       3.96791843907492
C         4.13402887798755      -1.75897541666738       3.64284523262100
C         7.44498498374783      -5.76107666041070       2.88662272476803
O         5.39946406838439      -1.82202772046694       1.28371006413294
O         4.30357208114447      -3.89367333454531       2.01684210441615
O         5.33261252421682      -5.10555214609535       4.41522479802887
O         7.55138328643022      -4.36832184262876       5.16539815358796
F         2.92534786938197      -1.40171830163448       3.07969730904767
F         4.82864943767832      -0.61833859140696       3.99823319999701
F         3.90106180038964      -2.52255344755620       4.77044207674239
F         7.59249081693121      -6.96626158863659       3.54651943496776
F         8.68832312070746      -5.29116902048075       2.50797564354455
F         6.66421296284290      -5.94686828474241       1.76154940053747
