52
C14H18F18NP optimized with ForceField in AMS.
N         0.43138989383707       0.22693104150731       0.04891403486145
C        -0.52066054341213       1.27020052692428      -0.44955749939931
C        -0.08368109714287      -1.14040325771695      -0.27050484237156
C        -1.97877617732796       1.06815306724636       0.00366030477146
C        -1.52543257364068      -1.38384180280741       0.20875490728809
C         1.73087081992641       0.45895445436209      -0.66472627315322
C        -2.47048846661609      -0.32934183922965      -0.35444143332653
C         0.63760271492465       0.38745754297252       1.51424116097788
C         2.88841724411709      -0.47598371613985      -0.26742785336966
H        -0.52844525951731       1.28441702985822      -1.56467400056260
H        -0.19370557292619       2.28469607991243      -0.12432681649333
H         0.54966881493289      -1.92392571816269       0.19929704755030
H        -0.05550568226487      -1.31612826448905      -1.37069795029501
H        -2.62188948782116       1.81540939368745      -0.50944493576302
H        -2.08949744429183       1.24706111481533       1.09307178469682
H        -1.57381921019469      -1.38621882174505       1.31834853482117
H        -1.85809413383044      -2.38637519612491      -0.13683657475425
H         1.59022146575186       0.35429661022569      -1.76517090454634
H         2.08020478801487       1.50389073347163      -0.49587928694469
H        -3.48911889170061      -0.48263391236427       0.06266268809219
H        -2.53066187501157      -0.43315699686149      -1.46058881299892
H        -0.31502129402464       0.38294033411766       2.07823636847423
H         1.24212993882452      -0.44444519758542       1.93429746269984
H         1.15230188033702       1.34719761423904       1.74334240709289
H         3.77560655299365      -0.22935417665556      -0.88800030826356
H         3.18265165869629      -0.33481480897020       0.79191959766897
H         2.64266480088257      -1.53856959361239      -0.45743752147191
P         4.27583276125199      -6.86118145044619      -2.50745009071626
F         5.77495796662325      -6.98318106555952      -3.34594721975912
F         3.22979688325326      -5.69511226575693      -3.22672451944026
F         4.99503838124221      -8.26340554884448      -1.81732218592897
C         3.71284179493210      -7.74737585097972      -4.13806353708521
C         5.36061414128048      -5.37657707017920      -1.90111235210730
C         3.12128232572201      -7.19399468310244      -0.99408060583565
C         4.36835833333846      -9.11350959088150      -4.47735125301564
C         4.68831954405077      -4.34867993372072      -0.96651173875790
C         2.14541196825473      -8.38227060057487      -1.10114520009794
F         3.97502439398869      -6.91295938799584      -5.21795926617765
F         2.34641356943613      -7.94302446353887      -4.10973561677028
F         5.81199195273990      -4.64811818631991      -2.99824652297722
F         6.46611749113257      -5.87684480298113      -1.22725184930642
F         2.33145706410574      -6.07752901562895      -0.78629430441796
F         3.88719995619361      -7.37497664307942       0.14942648671209
F         3.73088345751927      -9.64668674833431      -5.58378522226672
F         4.25030239935729     -10.02381278205774      -3.44928298546175
F         5.70643101963309      -8.96955387700414      -4.79711434670257
F         5.55199098164099      -3.28229314892960      -0.78510410885130
F         3.51949088705585      -3.85420757986016      -1.51332521953682
F         4.43283343708314      -4.88668749230038       0.27915248801108
F         1.11563992361802      -8.09475857474219      -1.97671493486064
F         1.57967669195519      -8.60839615853079       0.14168495902194
F         2.77841078807543      -9.54173296072610      -1.48980736385290
