32
C8H18BF4N optimized with ADF in AMS.
N         0.51311479189484       0.19856752625966       0.13222514343879
C         1.54809644311675      -0.55295114745371      -0.70465405243095
C         1.27213244321779       1.41648995999713       0.68762766965771
C         2.46292730042608       0.52527958719759      -1.25184403936344
C         2.60922830643544       1.48234152774122      -0.06136197078868
C         0.01201477207899      -0.66380706573284       1.27690527125694
C        -0.61089170607670       0.65602499065043      -0.77568912569346
C        -0.61770387090847      -1.96451338481924       0.82686741281545
C        -1.77183675644920       1.32779730116584      -0.06566643020358
H         1.02282559099017      -1.15081328974498      -1.46083094899005
H         2.09647679410822      -1.21041595730586      -0.01464442036387
H         1.42574509498579       1.24289273034492       1.75944138541853
H         0.63706690012641       2.29710142806708       0.53161197084713
H         2.03109847396979       1.02121267181742      -2.13759907748208
H         3.43044136374777       0.08498197582975      -1.53385617591196
H         3.39962399106419       1.10034032740068       0.60112661884682
H         2.85175839640287       2.51011622437473      -0.36838353314834
H         0.90161245611240      -0.86278902999517       1.89375882557571
H        -0.68676737747136      -0.03730823024901       1.85099380816944
H        -0.14442794262080       1.33556806316009      -1.50451727634715
H        -0.95633763461305      -0.23359338858126      -1.32129699778392
H        -0.96241910155131      -2.49694422039832       1.72566256276308
H        -1.48651500368930      -1.82853043843049       0.16506133714873
H         0.12563446431623      -2.61350542614492       0.34341101375617
H        -2.44324985361881       1.75519197710252      -0.82572548619402
H        -2.35720459756412       0.61630763972345       0.53299388500729
H        -1.44839615979981       2.15179849855397       0.58665962175351
B         3.56335887035402      -1.48553472576499       2.05735448816221
F         2.55014725581311      -2.43783297146733       1.67959314874031
F         2.87544468997511      -0.33713093075493       2.60764196270642
F         4.23637970469077      -1.06638648851962       0.86810197778715
F         4.44477552773620      -2.02297961292383       2.98870847775012
