78
C22H36F18NP optimized with ForceField in AMS.
N         0.00190513225721       0.00814702546500       0.00115727591533
C         0.84710607026592      -1.02102004817531       0.70553402702129
C        -0.87112771441406       0.68984143373540       1.02219374036968
C        -0.82169395680448      -0.68885585117895      -1.05017395296304
C         0.85326179654993       1.05236264964021      -0.67258497733921
C         1.89695816249443      -0.47013179186565       1.70518936457391
C        -1.94020399754503       1.66363873465973       0.46127542809163
C        -1.89100864955215      -1.68294824794909      -0.52695142332595
C         1.94201635771714       0.52011211479316      -1.64018331382115
C         2.68449448218148      -1.62063896785184       2.34675199620990
C        -2.76129470960561       2.27682705313205       1.60364773401237
C        -2.65682800837393      -2.31519945222108      -1.69699206313555
C         2.74104716708982       1.68304313222834      -2.24367416307562
C         3.71353925746748      -1.09972206530782       3.34625809311737
C        -3.82338303541748       3.23549427528831       1.07247047954191
C        -3.70141723392345      -3.31222383369225      -1.20275642093738
C         3.80502316468336       1.17970258643164      -3.21529521407747
H         1.37204780270724      -1.66711261580147      -0.03279705866250
H         0.20039055619130      -1.70973304191938       1.29030918678671
H        -0.24661611006268       1.28978385577273       1.71825744469203
H        -1.38374902640860      -0.06266450336890       1.66177474658877
H        -0.16167068361216      -1.27695163288389      -1.72328031315390
H        -1.32511327173760       0.05400709945246      -1.70800854240040
H         1.34440669588134       1.70343036644242       0.08437873284700
H         0.21526208717510       1.73329895139078      -1.27570926993561
H         1.39914676699079       0.09559509432724       2.51838424711913
H         2.61914500016753       0.19998532535421       1.19692590204891
H        -2.63830067719047       1.13943173908752      -0.22187411964234
H        -1.45731075279553       2.49397756182184      -0.09270395323174
H        -2.62452140170200      -1.17223177372416       0.12881391036936
H        -1.41172100984924      -2.50178315634773       0.04668086212426
H         1.47701527826908      -0.04173612737159      -2.47532572722761
H         2.65216693204320      -0.14911997290658      -1.11419385998894
H         3.21162867038723      -2.20124649870628       1.55854225556603
H         1.98586330921896      -2.30383740631836       2.87772857041905
H        -2.08863664372338       2.83452227832686       2.29157430059505
H        -3.26365900676205       1.47024555958586       2.18103562037532
H        -1.94636662436303      -2.84642467356134      -2.36767740780599
H        -3.16764876269011      -1.52160938809267      -2.28475229833920
H         3.23868145472438       2.25825202842033      -1.43268062460586
H         2.05481222883726       2.36739248294260      -2.78916116930070
H         3.21109497595104      -0.52843153151908       4.15591115638824
H         4.44946194449607      -0.44300263274020       2.83521647592774
H         4.25615096585676      -1.95532986835505       3.80054119949889
H        -4.53589204177376       2.69474873990202       0.41369974979341
H        -3.34872860691375       4.06061148895343       0.50058368644342
H        -4.38749809120175       3.67283136102387       1.92291465740886
H        -4.44778839212218      -2.80116307843317      -0.55794524099221
H        -3.21482857402253      -4.12783216716616      -0.62619670420321
H        -4.22899187139387      -3.75875986710393      -2.07172716745071
H         3.33245964352075       0.61477633389651      -4.04713468183975
H         4.52806604854822       0.52119422148972      -2.68833637472690
H         4.35675321325897       2.04353295926348      -3.64209557497716
P        -0.89540686197136       8.64494912097359      -2.01402500872643
F        -1.91547103626332       9.97034545015477      -1.60594326836376
F        -1.79643130142618       7.25604774374100      -2.49345286142014
F         0.21227818820490       9.95523065235808      -1.88725141806530
C        -1.55868739959563       9.15261526137002      -3.76484385750482
C        -1.52332163973068       8.31549041960985      -0.21286533246672
C         0.80941235660723       7.73414921960541      -2.05371083311392
C        -1.28428684346692      10.60306265894703      -4.24734029577461
C        -1.13827645254611       6.96773611062533       0.43198000150993
C         1.62884119194897       7.83939448131964      -3.35531825503094
F        -2.93905658768389       8.99283874671710      -3.78766777854470
F        -1.04393875987519       8.29793611010310      -4.71908394532562
F        -2.91432635410671       8.35974011859794      -0.18955071076636
F        -1.04274367349727       9.31573315358740       0.62094078313349
F         0.59530446794423       6.38251927770381      -1.85315658823788
F         1.60777043322830       8.18238092771725      -1.01009515964362
F        -1.69022629094194      10.71419893622834      -5.56568107521210
F         0.05263746556495      10.93339889846828      -4.19353644892948
F        -2.00418224049298      11.52745872724725      -3.51157990006902
F        -1.81411799039875       6.84264172556261       1.63353768453035
F        -1.50058162542772       5.89979382694818      -0.36668459488416
F         0.21221611283996       6.90786625839738       0.71136747190614
F         1.06704320414920       7.06420505604187      -4.35196639057081
F         2.90369565723661       7.35431223456459      -3.12272284517707
F         1.74872078902918       9.14045772844436      -3.79015607493785
