40
C12H22F3NO2 optimized with ADF in AMS.
N        -0.10741104840808       0.09746855916233       0.05070099057184
C        -1.36510948722573      -0.15619164286354      -0.74566607573148
C        -0.66332690484388       0.68677915073068       1.33753530254027
C        -2.36205864602894      -0.72126176317357       0.26628085350754
C        -1.90622164874082      -0.14964045650255       1.63669375183922
C         0.79874128116704       1.07694224823788      -0.65914273164405
C         0.61925188372357      -1.20118621825786       0.36162426175610
C         2.10037276880871       1.36861633736587       0.06740077906446
C         1.15925559940732      -1.95215313558565      -0.84305008684695
C         2.85474958645632       2.48361929239770      -0.65480597941315
C         1.99027585103108      -3.13732835917323      -0.34164555695385
H        -1.68970283722308       0.82423373807526      -1.12624951864067
H        -1.13774215940936      -0.81228861574862      -1.59448861689662
H         0.11504123822949       0.66714607819661       2.12427797686006
H        -0.92794290826695       1.72749111223460       1.09228597820385
H        -3.38524001077706      -0.41857572363721       0.00051432672428
H        -2.33835305098657      -1.82098470133983       0.26821005112402
H        -1.66666613332338      -0.95214626992462       2.34896707244657
H        -2.67812547051338       0.47783115401276       2.10308137003744
H         0.98086109866240       0.66728039967890      -1.66514927862716
H         0.20097025511875       1.99646042210310      -0.77453662856565
H         1.45109745748844      -0.94272041714187       1.03458821962092
H        -0.08168477075968      -1.82562224451246       0.93283046406158
H         1.90673771246037       1.64176733972025       1.11876710396594
H         2.72944290963346       0.46673824622344       0.12202759324668
H         1.80696263372769      -1.29498686812049      -1.44729663568204
H         0.34887142048799      -2.31325807563102      -1.50041728999620
H         3.10635144896368       2.19764238782543      -1.68951172386441
H         2.26409618210860       3.41286042256777      -0.69198056289987
H         3.79552806178145       2.70590440321515      -0.13159379500229
H         2.79231726622634      -2.78553440391023       0.32493610090000
H         1.36768872837234      -3.83961470982187       0.23414164667033
H         2.43497032907186      -3.68562264360716      -1.18451802406202
C         2.11105626867790      -0.59649116105233       3.21609573624868
O         2.92654424598396      -1.03050215906778       2.36930239510144
O         1.56651860048083       0.53164614320482       3.33143750429303
C         1.55551200831097      -1.66743837600431       4.21514040682047
F         1.29255382342434      -1.18382563987646       5.46033270305333
F         2.35150562977629      -2.76049687564471       4.36653370805779
F         0.33977060902572      -2.13996624665517       3.71453717991053
