43
C11H17F6N3O4S2 optimized with DFTB in AMS.
N         2.04207463595660      -0.09169522772534       0.76518552371769
N        -0.01990805593552      -0.53474034712760       0.32961172199689
C         3.48090464179409      -0.26826266355801       0.94182111733710
C        -1.21223196404824      -1.30330596317264      -0.02851157405493
C         1.21486257156469      -1.02670517411991       0.30884189656915
C         4.24202040580971       0.11048484871385      -0.33137984865042
C        -2.27686521409757      -1.22860483513082       1.06756498481129
C         1.32238100642932       1.02972143285564       1.07291716558605
C         0.01987514322140       0.75130966482976       0.79897892265320
C         3.98219131529669      -0.86239750028539      -1.47879636012486
C        -1.79450261750482      -1.82251665370747       2.38845063397690
H         3.64965736729068      -1.31855536903687       1.20124944852238
H         3.78906727245019       0.36634181660647       1.77595947055142
H        -0.88898818313029      -2.33714687152262      -0.17884332317920
H        -1.60358925771365      -0.90519319798506      -0.97003796388712
H         1.49477850019863      -2.01732485068839      -0.00090480295536
H         3.96663119708590       1.12772643521177      -0.62789880842677
H         5.30751275070178       0.10596861226283      -0.08587690795479
H        -2.58461927798152      -0.18806577872940       1.21083936130248
H        -3.14658853036232      -1.78624271720965       0.70782871512244
H         1.78411199461273       1.91861787955382       1.46574407267587
H        -0.86213580803231       1.35850267950466       0.89940908466547
H         2.92639176167273      -0.86497003112970      -1.75274269055616
H         4.27438101196087      -1.87318671009104      -1.19391348760319
H         4.56395369460046      -0.56434777084745      -2.35032292800031
H        -0.90820724611255      -1.29948717119892       2.74621041050018
H        -1.54538263171709      -2.87495869234436       2.26103094411189
H        -2.58068559790654      -1.73509369896626       3.13766711892488
N         2.88853194580811      -3.39305395354241       1.22069651877182
S         3.38000630521338      -4.59550364299930       0.26412466820961
S         1.52111769410830      -3.57678510475831       2.03600376957828
C         2.14913641752591      -4.77880723730525      -1.14625880501060
C         1.65436596183005      -4.95714775145848       3.30062866906161
O         4.56224739640666      -4.10010332615513      -0.39212615513414
O         3.41580116941054      -5.88422553245394       0.90017387135088
O         0.38554617886403      -3.93069798846434       1.19864909142006
O         1.38250118114242      -2.36954394334864       2.82520087289444
F         1.18498399410276      -5.62802847479614      -0.86693342373297
F         2.78977493593607      -5.18866644767705      -2.22623948440991
F         1.60452514821739      -3.58307943581740      -1.42103694129188
F         0.83694806845916      -4.66593125942780       4.30084717383470
F         2.88769397226803      -5.03254805414467       3.76125084714159
F         1.29756985300314      -6.10899976831301       2.77674744698430
