34
C10H21NO2 optimized with ADF in AMS.
N         0.47826367915378       0.28580576302755      -0.01776133586268
C        -0.12161057535096       1.04267242831039      -1.18959066377908
C        -0.61891725026978      -0.66996642691337       0.36972914990042
C        -1.57597768579881       1.27192428191509      -0.78647368030185
C        -1.91801845229663       0.12694347750459       0.20848926427453
C         1.75396338993242      -0.39187444928052      -0.46247430594299
C         0.75928319955565       1.26747509879084       1.08491102578687
C         2.44303535193872      -1.23653677263887       0.59403418841987
C         3.78901230934848      -1.70230672672734       0.03026720383089
H        -0.04704376151910       0.36446557447033      -2.05282313054012
H         0.51280063855399       1.93794833525441      -1.34636797306699
H        -0.43526496150461      -1.04875621888106       1.38307025657018
H        -0.56563286511261      -1.50651692719237      -0.34332525217913
H        -2.22444796022690       1.25743974677237      -1.67337490137398
H        -1.70110773841555       2.25514521457775      -0.31023567103541
H        -2.25574905159428       0.53215924056385       1.17343766262817
H        -2.71856755878693      -0.52705937197140      -0.16570759025362
H         2.44566543285808       0.43300084715806      -0.78183945894194
H         1.47271432182985      -1.00892204743094      -1.33201570833607
H         1.44278713140958       2.02706899866456       0.65234582765257
H        -0.18745751951560       1.73253939143516       1.38346203396686
H         1.18935246407299       0.72904055641557       1.93515687952936
H         2.64246696606615      -0.62975553953756       1.49193470785876
H         1.82953413622710      -2.10240182449214       0.90273961283931
H         4.34192780204736      -2.29628155335009       0.77240318925572
H         3.65016969916899      -2.32361212506388      -0.86885710987366
H         4.39188128568086      -0.82522708624544      -0.25066704863741
C         4.20768465792106       3.95038672346794      -1.53840712198244
C         3.27898687395542       2.80906987455205      -1.10711696633251
O         2.07185758602943       3.13478491614137      -0.84929485031980
O         3.78058070653471       1.64843838142833      -1.03210977753754
H         3.77070572626378       4.48439707370045      -2.39567570991436
H         4.29558764378334       4.67978705580930      -0.71824466320193
H         5.20567268176001       3.57467268476500      -1.80120021330000
