40
C10H22F6NP optimized with ForceField in AMS.
N        -0.55709918768841       0.31826700587771       0.15834323343098
C        -1.55337374253917       1.24701210661469      -0.46522509425200
C        -0.89660543968436      -1.10010043717348      -0.16957391610283
C         0.77936666128615       0.67018293781435      -0.42799992432476
C        -3.02150343296817       0.90930100673315      -0.14569410438827
C        -2.34731583359639      -1.48110392466388       0.17222922939144
C        -3.33505233439520      -0.53805379467447      -0.50564624127718
C        -0.52115752439278       0.52848100028809       1.63181921557034
C         1.98132687810456      -0.15612612256639       0.09324093820643
C         3.28420947488044       0.31072508377676      -0.56772545019665
C         4.47977490068070      -0.48858821595488      -0.05691806408444
H        -1.45409934277331       1.22972284437363      -1.57599312355262
H        -1.36017233927886       2.29767595155745      -0.14787060303466
H        -0.23897251078928      -1.80464025272815       0.38431763802416
H        -0.73629419695642      -1.29251247840963      -1.25451153388194
H         1.00175169524314       1.74677200691170      -0.23886240697150
H         0.75088293371041       0.55079270305145      -1.53648212104790
H        -3.68064995280795       1.57767856674844      -0.74077765868904
H        -3.25755601427686       1.10060859562191       0.92136006315839
H        -2.50409977676356      -1.47159219532131       1.27186396070820
H        -2.53948941684277      -2.51820354587048      -0.17798081673238
H        -4.36843542218131      -0.78662572697137      -0.18172479608719
H        -3.28088335506259      -0.66666472002910      -1.60803162203807
H        -1.52265458888482       0.44823825345570       2.09509165043777
H         0.10279921335718      -0.23726377035871       2.13909651755287
H        -0.12041628442058       1.53585269310089       1.88323658853938
H         1.84240384110541      -1.23162637805183      -0.14145292736036
H         2.09210856401670      -0.03436002282714       1.19024313252947
H         3.45122798726315       1.38757875898947      -0.34691060221058
H         3.21132030280612       0.18507649487097      -1.67007632725083
H         4.35260644507732      -1.56634884767240      -0.29336838309041
H         4.58616281330270      -0.36463963375972       1.04183414031752
H         5.40692415068934      -0.12401433751706      -0.54648026987957
P        -1.48508041412718      -1.17895959831602      -5.08873424689044
F        -1.93468350127356      -1.79802608658579      -3.55256331313405
F        -1.55202236123546       0.45296479836631      -4.55688943750524
F         0.16984333543049      -1.13729984093716      -4.63074085080186
F        -1.09192826325479      -0.74517209912684      -6.70342754479509
F        -1.35711041892986      -2.81570114827630      -5.59356474449955
F        -3.15038254323017      -1.05880701206055      -5.49205766748755
