55
C15H20F18NP optimized with DFTB in AMS.
N         2.08147775618459       0.30001359201677      -0.66341629073533
C         1.97720862968222      -0.39197353469994      -1.99721575414809
C         2.85157226954632      -0.53515561518392       0.32015125099125
C         2.82163820428511       1.59122622644588      -0.91538498207149
C         1.46251314623600      -1.82145380164941      -1.90007159593007
C         2.35137636174597      -1.96981603707902       0.41841874028983
C         2.33643301773323      -2.63885361019827      -0.95263467519866
C         0.72072899034132       0.59214276387510      -0.14317014584809
C         3.17402490272669       2.39463670513794       0.33450517403258
C         3.76911934935883       3.73966405536778      -0.08429012396855
H         2.97687234775405      -0.39632740173959      -2.43250024923820
H         1.32289885975988       0.21963951421958      -2.62302180249250
H         2.77779477160824      -0.04355300709673       1.29194068634354
H         3.89131688248021      -0.52521649284357      -0.00390290496626
H         2.19443323391540       2.18344054848078      -1.58744642459010
H         3.73881957623557       1.32218992763536      -1.44067368575719
H         1.50209985007701      -2.24577592391139      -2.90644447607893
H         0.41944914935239      -1.84149191835061      -1.56924776061894
H         1.35465389611030      -2.00384120729411       0.86949362979605
H         3.04011300655543      -2.49995543790148       1.08060007511485
H         1.94282114562319      -3.65392056481739      -0.86648182796391
H         3.35551283550060      -2.69552655001190      -1.34483082791096
H         0.80238305588773       1.08217823388096       0.82427920448810
H         0.20553317359634       1.24409303988925      -0.84644429591284
H         0.16749376919442      -0.33678584088972      -0.03097461791733
H         2.28928527209083       2.56773379979363       0.95382114815591
H         3.91252969598176       1.85297322697491       0.93017421308403
H         4.66398088751107       3.58761066526603      -0.68670389689962
H         3.04854347261837       4.31634603880513      -0.66527722768633
H         4.03975656649377       4.30918059929137       0.80373979345355
P         6.64676981570096      -0.89657798280649      -1.90950831834432
F         6.46334948381820      -2.20586198509005      -2.93401426945078
F         4.92047994983568      -0.74936903893012      -1.85076731309074
F         8.30747930504935      -0.99428566670743      -1.92332698821381
C         6.59056888129062      -2.17617593728619      -0.42308848442009
C         6.69915796330589       0.18204372784205      -3.54767600750142
C         6.65351031851431       0.68135831705747      -0.66053296535346
C         6.90909607616373      -3.66550110245930      -0.72524877006156
C         5.35719840045974       0.43557763934804      -4.28732088722167
C         7.94861942592875       1.36760632068083      -0.15277479256790
F         5.37157888940736      -2.19905107470564       0.17537395465241
F         7.46878223950069      -1.76834458915909       0.50705548857899
F         7.49376883217354      -0.44709067929454      -4.42611850170577
F         7.24911993602540       1.38829148053853      -3.32144136103590
F         5.94372448569868       0.35043802585414       0.44807361234293
F         5.92437764135915       1.66227964616219      -1.25534586088274
F         7.08311541237503      -4.33098069425808       0.42003388725742
F         8.00566538670634      -3.81158901859776      -1.45335927462653
F         5.88642474072584      -4.23569356377982      -1.36455307584854
F         5.55982951256975       1.06851373670485      -5.43904629552245
F         4.71489105929177      -0.70023634458938      -4.54992063160950
F         4.52560879183047       1.19882535176700      -3.55636368001313
F         8.66327902707887       0.55547354876522       0.61481242079530
F         7.62515431363659       2.44248803514344       0.57832543277156
F         8.71055741266624       1.77505682918679      -1.15944848454462
