55
C17H36ClN optimized with DFTB in AMS.
N        -0.76186700074905       1.86080477654057      -0.17274067438377
C        -1.57772245443617       2.34266732519715      -1.34216620789149
C        -0.22517107448973       3.05837307487103       0.55275565150225
C        -1.57361612779774       1.02228851861628       0.78619805840469
C         0.38826887766951       1.07904276114113      -0.75535169183668
C        -2.71657814322264       3.25995013742680      -0.93061502701604
C        -1.30892599778463       4.04257338464186       0.98576214292643
C        -2.17297779940156       4.48416734907270      -0.19530643522927
C        -2.19968540019138      -0.25226664490932       0.20783859876722
C         1.45455487605538       0.63749300519135       0.24194097027094
C        -1.43940039728011      -1.53073485070432       0.57678154304340
C         2.38089025178314      -0.37352399645692      -0.44624539866829
C        -2.00686768970804      -2.72770103514139      -0.19235992681350
C         3.45717807634854      -0.88057588749275       0.51707020313387
C        -1.25671761083587      -4.01461868550873       0.16202901572331
C         4.36435795025754      -1.91018314451910      -0.16410257178683
C        -1.78975345389156      -5.20306392516940      -0.63659704963269
C         5.43857380373475      -2.42530890090986       0.79202800741518
H        -0.88858892711483       2.88668376042682      -1.99365079561341
H        -1.93293048256199       1.46499146990595      -1.88998377394677
H         0.32394141834011       2.70324609920533       1.42697250099324
H         0.47407722345306       3.55187887941976      -0.12805924900708
H        -0.91483732181463       0.78340101817322       1.62522644435706
H        -2.36442377901785       1.67034724980974       1.16526829188892
H        -0.05509921750086       0.22184495455801      -1.27220692963579
H         0.84666848923691       1.71909729438150      -1.51323786766549
H        -3.22809137974653       3.57434908552699      -1.84375479958417
H        -3.44433355531213       2.73191383636965      -0.30936865509091
H        -1.93573573685898       3.60251365595073       1.76594264882607
H        -0.80392612263148       4.90945060158533       1.42087928997544
H        -2.99664319993962       5.10431767126975       0.16603859435183
H        -1.57017502680871       5.08528593786091      -0.88375655616437
H        -3.21814533318210      -0.32153851129431       0.60249095799399
H        -2.27778027600431      -0.19414303460769      -0.87829385793697
H         1.00614452452096       0.16874853363747       1.12118607648779
H         2.04427697788904       1.49487082811919       0.58209068266895
H        -1.50778665699461      -1.70426633152895       1.65707668642522
H        -0.38135145824883      -1.42516450192143       0.32369651877884
H         2.85339162002931       0.09865766696819      -1.31328052666935
H         1.78718203810723      -1.21845297463037      -0.80787843708445
H        -3.07073537906332      -2.84369752355699       0.04006712715976
H        -1.91139993074345      -2.53321577879501      -1.26495052038491
H         4.06000373808424      -0.03660077400662       0.87069475067603
H         2.97778793920635      -1.33708754378552       1.39021371788143
H        -0.19017947393918      -3.88298851067947      -0.05187493661972
H        -1.35936296153914      -4.21881434067492       1.23413263989294
H         3.75754918212707      -2.75047195893908      -0.51698481570608
H         4.84201393044258      -1.45268600480366      -1.03684073778447
H        -1.23769549203876      -6.10719668381506      -0.37788094403111
H        -1.67982854300291      -5.02166660299899      -1.70620106075377
H        -2.84641118904428      -5.36629008813265      -0.41932239852448
H         6.06724729533978      -1.60432615988315       1.14009973842643
H         4.98122715834260      -2.90365474316061       1.65935790499061
H         6.07000501119305      -3.15554387070441       0.28563896956503
Cl       -1.33891309366411      -0.40527620313668      -3.02134107406503
