35
C11H20N2O2 optimized with ADF in AMS.
N         1.54239902162748       0.18728059917328       0.81593828907881
N        -0.02872641477721       0.62218907819914      -0.62290527318686
C         2.57852650825284      -0.50545606318591       1.57644292877368
C        -0.85919720435790       0.47705041060569      -1.81495951746211
C         0.75101719027749      -0.35831875180052      -0.12859413605988
C         3.97787696845178      -0.38072093733363       0.94303306253988
C        -2.32952655530737       0.75897849768900      -1.53043243899543
C         1.35178368054569       1.56419775934340       0.81830663532801
C         0.37734596115864       1.83070673966667      -0.08720646757943
C         4.39996912845521      -1.63293984359908       0.17842338953876
C        -2.93237141529405      -0.20267017771370      -0.50999647562546
H         2.27626811867895      -1.56134741188759       1.65324100728977
H         2.55399602256627      -0.08380936345154       2.59344934152274
H        -0.70292449855736      -0.55097412995981      -2.17373502419757
H        -0.41816805989303       1.14367561428082      -2.57383105178784
H         0.59216745208165      -1.41592089916791      -0.26959110443882
H         3.96977973439996       0.48772866198305       0.26211603630700
H         4.70296223463884      -0.15598184774773       1.74329478316742
H        -2.44517513851006       1.80012929798898      -1.18027564850001
H        -2.87216997980371       0.69308473518165      -2.48865169175049
H         1.94267421961973       2.21837150115333       1.44627537192246
H        -0.03607324973983       2.77175880737705      -0.42380916079082
H         3.69828949921570      -1.82306457012394      -0.65001872723646
H         4.42454673651572      -2.50745155796630       0.85092148224367
H         5.40778379576744      -1.50877990550050      -0.24526411714454
H        -2.39714277083191      -0.14132791764089       0.45080267448243
H        -2.87126015910991      -1.24427135674478      -0.86596603063823
H        -3.99138716849288       0.02773890977253      -0.32140296932570
C         3.68251228201372      -0.29016295792510      -3.51539470173019
C         2.49414017094766       0.00108527346881      -2.58771434450136
O         2.05249612515965      -1.01621125323764      -1.93060145689581
O         2.07953969959321       1.18193099627482      -2.51812583343720
H         4.60988910736084       0.01215265797582      -3.00165919090806
H         3.75956118870279      -1.35812393229295      -3.76332387409175
H         3.60500603334394       0.31342279784549      -4.43131655551061
