53
C15H17F18N2P optimized with ADF in AMS.
N        -0.69555844959631      -1.15940015239029       0.68340407016834
N        -2.42340563877051      -0.05614925229904      -0.02884859089581
C         0.41548414986365      -1.61035981374108       1.53239816229418
C         1.76514944501251      -1.20983733258481       0.95029584532091
C         1.94682168481508       0.30025396798056       0.82053976108244
C        -1.54673756959942      -0.17114291731515       0.97858709905011
C        -1.03403601914519      -1.69025822342838      -0.54303435372231
C        -2.12085716925081      -0.99754704004958      -0.98871633382396
C        -3.53785098481150       0.90553395291389      -0.08244800982734
C         3.31631382638368       0.67123174204873       0.25768519235432
C        -3.05525223347106       2.31505397731325      -0.38124304538538
H         0.25595159895769      -1.16398664612191       2.52316110987276
H         0.31154943332429      -2.70010440923155       1.64366316809483
H         1.90716611130783      -1.69337388412142      -0.03350412065347
H         2.54148228304073      -1.62668865501577       1.61613347854917
H         1.15675892376746       0.71265421397890       0.16671271572955
H         1.81130959523081       0.76639650801983       1.81431862817117
H        -1.56321340497849       0.38870104398241       1.90470178692083
H        -0.50471472291605      -2.53231696425475      -0.97061343884051
H        -4.22031340077421       0.53560925014954      -0.85957347919933
H        -4.06853169399052       0.83808475660382       0.87788326406055
H        -2.72835256196756      -1.12560448504152      -1.87597870187189
H         3.45950304095913       0.24013499851288      -0.74574804165647
H         4.12371464980475       0.29289003498658       0.90404132655500
H         3.43326861868858       1.76211814067166       0.17617564182636
H        -2.40595545894897       2.69458303160799       0.42139982277676
H        -3.92367308123099       2.98609106388620      -0.45606546362340
H        -2.50245177468416       2.35345252496876      -1.33132920215602
P        -4.90924194351121      -3.07190510801526       3.58773296092584
F        -5.41178644087440      -2.81100653723661       5.14635844166336
F        -3.65822705255080      -4.03420603423900       4.12850049932305
F        -6.07989547515134      -2.06313258023890       2.93961505470904
C        -6.19102183554707      -4.58324342365232       3.61621931613586
C        -3.83528052065738      -1.40757129255370       3.85343940319802
C        -4.17073826581899      -3.45582801692909       1.73674919964369
C        -7.71295240238917      -4.24438066337956       3.76961182521868
C        -2.42338671506663      -1.49787855926872       4.49568054996365
C        -4.96808072313500      -3.02887092582645       0.47322315790937
F        -5.87668463452479      -5.38468186849376       4.68947845705858
F        -6.15565974215880      -5.39376836957080       2.49914229115744
F        -4.52301992368696      -0.53996150976953       4.66842674708004
F        -3.66331413811507      -0.69391589485536       2.66253474775762
F        -3.92295711772359      -4.79667275192434       1.58339038734984
F        -2.92012355117328      -2.85464898187623       1.56759892085089
F        -8.39755863783103      -5.40702573391904       3.98501679347414
F        -8.20979899734826      -3.69190620112560       2.63439485580217
F        -7.97967078623815      -3.41860139306899       4.80222908911123
F        -2.47924276291269      -1.95927724659240       5.75397843896699
F        -1.56191479440332      -2.27241924159260       3.78599659057540
F        -1.85211534853906      -0.23790098443248       4.53582777989746
F        -6.20373105590740      -3.54965645969113       0.44018017178861
F        -4.30763396489405      -3.44597830508789      -0.65856651337320
F        -5.06992866596200      -1.67213524128998       0.37722018774084
