25
C9H13NO2 optimized with ForceField in AMS.
N         0.16922804360821       0.00049946089717      -0.34357645596634
C         1.61046599048950       0.02428512368525      -0.61938647526654
C        -0.51605979634073       1.17716845997252      -0.20839605547486
C        -0.47852477801594      -1.19813262756676      -0.21663379309244
C         2.40042289267616       0.05225040912668       0.68407527195104
C        -1.88859408035987       1.17223938865006       0.05150045943568
C        -1.85032625340534      -1.23848940302132       0.04371899620320
C        -2.55747604579832      -0.04448042926598       0.17622516566210
H         1.90820468473681      -0.86958554414788      -1.21113909869692
H         1.87426550678540       0.91603964295781      -1.23013489855081
H        -0.00308006921065       2.12736490946235      -0.30083737944992
H         0.06422625970226      -2.13108756912024      -0.31460727325322
H         2.15093535346354       0.96732076201855       1.26158654993753
H         3.48790154063578       0.05448076639342       0.46081834877339
H         2.16111970901374      -0.84339700754817       1.29591652015053
H        -2.42796110372503       2.10481176147982       0.15481433546519
H        -2.35954972842937      -2.18843366672634       0.14165252506121
H        -3.62085286911316      -0.06209532928669       0.37689617632730
C         0.88626796865479       0.64861952212251       4.17216458495084
C         0.54186960525200      -0.16081352506329       5.38224536114141
O         1.20989527509092      -0.05288439061101       6.39767354716073
O        -0.40543508225927      -0.93032660086438       5.35916235140020
H         0.80752104698784       1.72968003451956       4.41254735800114
H         1.92579201757692       0.42032781989701       3.85667209699372
H         0.19636045288384       0.41561223803937       3.33258967663581
