26
C8H14N2O2 optimized with ADF in AMS.
N        -0.47974148125604       0.21501293218556      -0.21168685148037
N         1.63210010866482       0.01355806954592       0.23643554729533
C        -1.79335366370461      -0.17273441876852      -0.72864847516131
C         0.51104018963708      -0.67768144876757      -0.03104149130114
C         0.04584449421846       1.49523702228648      -0.15305437727829
C         1.37184263808911       1.37111069945103       0.13210086117113
C        -2.59586057624303      -0.96494765264658       0.29066990466694
C         2.94164681455366      -0.61807797189101       0.31180750911958
H        -2.31131196813552       0.75475394226595      -1.01209267817142
H        -1.59205033045916      -0.75517623382115      -1.64408596723488
H         0.49985627965138      -1.78327186837277      -0.12734479500904
H        -0.56624218887422       2.37420350966515      -0.31188694070569
H         2.14068401794935       2.11908526952897       0.27664652602308
H        -2.07638672134287      -1.89611708086615       0.55961439100037
H        -3.57386385739695      -1.23403970676342      -0.13428047233838
H        -2.75898951132194      -0.37442839896519       1.20499054133023
H         2.78719021596182      -1.70474310016377       0.29747604138599
H         3.52210333755582      -0.33807200172457      -0.57772989961503
H         3.46129722050252      -0.30937234613923       1.22812728909633
C         1.57200467694281      -3.27142721873883      -3.45350994566719
C         1.16337053467821      -2.51344804781842      -2.18750077735694
O         1.19512648498688      -3.14071559051840      -1.08057862216636
O         0.81138498041365      -1.30127496447282      -2.35369861051152
H         1.98154200194737      -4.26186265635714      -3.21688525987564
H         0.68824037467265      -3.38888229728574      -4.09995864224768
H         2.30611649870875      -2.68048381224779      -4.02111794986809
