32
C8H18BF4N optimized with DFTB in AMS.
N         0.95846047711215       0.12264705442461       0.09085941611302
C         0.23898646841301       0.81852676205348      -1.03146980313757
C         0.70616597728524      -1.35484735244010       0.00990170531710
C        -1.25396719908954       0.52163586992602      -1.05210292889731
C        -0.77787309937271      -1.70144524021767      -0.01957634029021
C         2.42838952396320       0.42303344334774      -0.08839324387158
C        -1.49140146780065      -0.98276949041367      -1.16247682227343
C         0.51925499612440       0.65996305730606       1.40447057531133
C         3.36188694552896      -0.44943022850843       0.73356904675751
H         0.69389828610402       0.46661523504692      -1.96127359715007
H         0.42719477659666       1.88929566376034      -0.92152639289673
H         1.18083891451866      -1.81830977731539       0.87661031058627
H         1.19118978191249      -1.70596749049904      -0.90343764874684
H        -1.67188151333115       1.02728586508126      -1.92659444412513
H        -1.75128001281877       0.92693791765813      -0.16473969194853
H        -1.25417803711295      -1.46333211052500       0.93751786388809
H        -0.84959078510376      -2.78277211465262      -0.16425204929999
H         2.65713190411448       0.28320601852519      -1.14712200999630
H         2.55887436035846       1.47888690477336       0.16431670383315
H        -2.56237940931266      -1.19612758946540      -1.12423352401702
H        -1.09605880220938      -1.34154382868671      -2.11659433919582
H        -0.53698323695424       0.45502324273331       1.55713480489291
H         1.09623649677796       0.18391103083048       2.19466016457724
H         0.68797306300264       1.73554893185811       1.42008471963542
H         4.36174686564731      -0.02349102741853       0.65028175970767
H         3.08924325168166      -0.48609535016887       1.78796358398279
H         3.39493665148864      -1.45915493090986       0.32645707327556
B         2.26140791954300      -1.21370747635204      -3.14885579279723
F         2.75406467044492      -1.74938730954722      -4.29737717342078
F         2.40556541994180       0.19633138268244      -3.11048247177453
F         2.91725498897610      -1.72779469044795      -1.99705646244858
F         0.87540932957009      -1.48426924613897      -2.98516182359042
