23
C7H9F3N2O2 optimized with DFTB in AMS.
N        -0.10505576074006      -0.36453636040026       0.73271037920708
N        -1.88298063060327       0.03651087051536      -0.41232882079071
C        -1.03059626159436      -0.91677257797364      -0.04803797968547
C        -0.39095995481559       0.96266082747860       0.89454355845934
C        -1.51055292318128       1.21713306501865       0.16808010384100
C         0.83646297188458      -1.11125805155491       1.55016128845300
C        -3.13879988408267      -0.19439634319291      -1.10689573885966
H        -1.09435425141776      -1.95728931611805      -0.31843591425103
H         0.21006293948826       1.60378271828781       1.51476171586570
H        -2.07236237481764       2.12390785450168       0.02910086360723
H         1.07703843250964      -2.04973968808695       1.05496159500294
H         1.73562069470860      -0.51767537228261       1.70403008402260
H         0.34171424764142      -1.31429246751783       2.50394027397678
H        -3.94232351990383       0.19022247467084      -0.47979086161798
H        -3.13000709819524       0.30625584832734      -2.07549518810667
H        -3.27085297595122      -1.26682936887212      -1.23072209137189
C        -2.69463683708819      -1.55390054608823       2.08134608875684
O        -3.66406757207302      -1.28124297307915       1.38494917795024
O        -1.92174371132230      -0.88260552573248       2.75413489719618
C        -2.25671034765833      -3.13455068018862       1.98069619258478
F        -0.97519442172910      -3.31982234181487       2.38157735123590
F        -2.27496002627776      -3.52747094580046       0.67357349066177
F        -3.01044634508087      -4.00530706019719       2.65633554086205
