30
C8H12F2N2O4S2 optimized with ForceField in AMS.
N        -0.49195664773190       0.00322224567754      -0.41939744501687
C         0.93544849324236       0.00281097084415      -0.76161838349463
C         1.77591335804784      -0.00367668716292       0.51708554756137
C         3.26896386512752      -0.00383777978473       0.20835426146981
C        -1.14583360185038       1.19140974162961      -0.23860364968008
C        -1.14776916365562      -1.18406556952898      -0.23776449825743
C        -2.49283126562333       1.21041228566459       0.13085183610897
C        -2.49497145359650      -1.20060122361311       0.13154089539786
C        -3.16855557097988       0.00557161613679       0.31734539231860
H         1.18277263441175      -0.89069702022895      -1.37795123556064
H         1.18567265330242       0.89779344058177      -1.37432772322879
H         1.53088386508968      -0.91325625712824       1.10324255658634
H         1.53054138198852       0.89110849864892       1.13010675407784
H         3.54143540716056      -0.91044402909445      -0.37264435174789
H         3.84255481362659      -0.00613134455103       1.15940324352570
H         3.54399521216451       0.90299532741004      -0.37096473376756
H        -0.62418727609417       2.13225095363613      -0.36921442997301
H        -0.62806251356471      -2.12599960053295      -0.36838504618213
H        -3.00546347765271       2.15234496854592       0.27694312824227
H        -3.00977992529155      -2.14140877383921       0.27739757138693
H        -4.21100799789756       0.00674911636085       0.60869599685255
N         0.17180608235718      -2.16113818652616       5.76442391798614
S         0.58358923176125      -1.08366864228041       6.92497481129592
S        -0.02311407802080      -1.69509171101206       4.20861101166314
F        -0.76395828477270      -0.17668259602218       7.32898554612582
F         1.48175015183517      -1.37897804679084       3.55080054272718
O         1.07537198896999      -1.81567985829080       8.14098307488076
O         1.65751910864799      -0.16241855609906       6.41725375883357
O        -0.85695799017096      -0.44604265230000       4.14648798034099
O        -0.69285129453056      -2.79228695425024       3.43124466732728
