38
C10H20F3NO3S optimized with ForceField in AMS.
C         2.68093047285809       0.30947014427668       1.50665547429542
C         1.64441922495637       1.26222530811923       0.93312040438661
H         1.30048960474033      -0.88823305850932      -0.92490674819913
H         0.34327629388383      -1.69913548078397       0.35908791452197
H         3.12865418238366      -1.45740356186246       0.31571045643486
H         2.13855337604936      -1.76585087086485       1.79900478662773
H         2.61898717315137       0.30717864647537       2.61612344840986
H         3.70811848966987       0.60435574778911       1.19865614953750
H         1.38768001275416       2.06057827638143       1.66759673966252
H         2.10891665806285       1.76809670596146       0.05376807101457
H        -1.25082206553243      -0.42265733729919       1.49820176714223
C        -0.44826188886511       0.31998006302168       1.69627916770070
H         0.09893169406540      -0.03603215170987       2.59729531469552
H        -0.92510473062516       1.29354329032475       1.94714954575890
C        -0.21491510056279       1.14892809289794      -0.61805550943809
H        -0.33551479806688       2.22949917965846      -0.37078914489000
H         0.43041136270534       1.12575192182336      -1.52604238791710
H        -2.33587286829735       0.73747447232962      -0.15621858065177
H        -3.02270190243088      -2.09299625281537      -2.64644516007341
C        -1.66807298293728      -0.77302408708688      -1.58456843336133
H        -0.85052481735208      -0.91040628258135      -2.32481698269885
H        -1.55227427255617      -1.51435994591441      -0.77019029749652
C        -3.00475020733295      -1.04896578003317      -2.26894222875516
H        -3.14974596553925      -0.35937208115773      -3.12774432787045
N         0.46197776334992       0.46179008190384       0.52931212967331
C         1.03573023341018      -0.85435116812871       0.15633843812037
C         2.31629907225054      -1.05617098832797       0.96089958041240
H        -3.84010998166866      -0.91783611550831      -1.54812484269901
C        -1.62874244517983       0.64832938437943      -1.00710517902154
H        -2.00327005303095       1.34732651828892      -1.78769001477275
S         5.27579703330949       1.31878690490838       4.66734407585858
O         6.53838832238809       0.49095315144943       4.38776828033734
O         4.18319867714509       0.25039044176191       4.81631787466825
O         4.96460869040076       1.95275429489355       3.30415020109807
C         5.40515687141769       2.48726887395336       6.04691922354448
F         6.44462871311318       3.36560538846574       5.80976765086552
F         5.64549404704298       1.79330502197308       7.21687218447121
F         4.22327689676919       3.19288934014685       6.16399416750718
