31
C9H20ClN optimized with ADF in AMS.
N        -0.33104875980195      -0.03122481557245      -0.01145921009679
C        -0.91330105155676      -1.07476349959386      -0.95440750187535
C        -1.32985411697348      -0.06575530262405       1.13539116952071
C        -2.42005154327651      -0.84511177054991      -0.92009995541746
C        -2.70328331164419      -0.26250092030316       0.48826398622690
C         1.02761982814082      -0.46358636402854       0.49869309769701
C        -0.30762341684274       1.31721931187786      -0.69047012402429
C         2.09347926672371      -0.57655375265417      -0.57692246594548
C         0.35508110406738       2.42287972213917       0.11055361988415
C         3.39108838610060      -1.09269741761042       0.04839749303534
H        -0.67537252834370      -2.04699754500890      -0.46747074938982
H        -0.44738979763713      -0.97003232611540      -1.94225170313046
H        -1.21638273250428       0.84214415844719       1.74064433258427
H        -1.06077036649449      -0.98237163230325       1.70221568723360
H        -2.93116354117778      -1.80723394302508      -1.07132873024941
H        -2.75533099567494      -0.15798250607688      -1.71246029461277
H        -3.28154611271719       0.67159024404693       0.42788842000797
H        -3.27028551654333      -0.97764203978589       1.10243306490771
H         0.83022016945516      -1.45443867871481       0.96898257942770
H         1.31421213525294       0.25396986716109       1.28333868563815
H         0.20946232730315       1.17114639033065      -1.65049750245368
H        -1.35647757714232       1.56683055287016      -0.90776251616197
H         1.75974056063427      -1.29072389383766      -1.34896003391097
H         2.28155763000783       0.39072706486558      -1.07718261018259
H        -0.10293404957541       2.55723023410874       1.10118681064725
H         1.43267704259740       2.25134185729682       0.24164610654565
H         0.23202087928817       3.36803079758885      -0.44023536845243
H         3.76506943104227      -0.39885171098413       0.81764649718926
H         3.22341931766702      -2.07104820763151       0.52353206504331
H         4.17394084124480      -1.20683858245821      -0.71464571380267
Cl       -0.54238895631933      -3.23455193105477       1.47617924891715
