35
C9H18F3NO3S optimized with ForceField in AMS.
N         0.43020234056851       0.23303762559487       0.03541703458727
C        -0.51874088220392       1.27275614658995      -0.47367449363834
C        -0.08565481459993      -1.13216357083072      -0.28833735485824
C        -1.97210992489112       1.08423861604638      -0.00342700051184
C        -1.52408357669377      -1.37648607122314       0.20201159697034
C         1.73436002051025       0.46623970309926      -0.66844994948457
C        -2.47474000867920      -0.31482180255367      -0.34015232896199
C         0.62430665122724       0.39461299282970       1.50247421473543
C         2.89072249504213      -0.46782953139538      -0.26558462492793
H        -0.53622348197169       1.26414603090169      -1.58891201266814
H        -0.18364513646533       2.29098250102501      -0.17064827832620
H         0.55279900985476      -1.91773351285341       0.17007608518176
H        -0.06799584581285      -1.29882905073337      -1.39016866898297
H        -2.61653508896466       1.82919783607212      -0.51850671020983
H        -2.07156859636017       1.27799963425157       1.08432718007858
H        -1.56317051929719      -1.39237628045492       1.31158881769987
H        -1.86275216526039      -2.37502212920733      -0.14966450204021
H         1.60140384457758       0.36393084010611      -1.77004130755000
H         2.08176494178833       1.51085240971526      -0.49399457201839
H        -3.47900265679627      -0.45864866685668       0.11036868870333
H        -2.56559899742290      -0.42344870767909      -1.44369038870510
H        -0.33001980246006       0.36686829591457       2.06222320210014
H         1.24086293882761      -0.42664256038051       1.92480268186982
H         1.11533683806105       1.36510314984299       1.73649268377464
H         3.78633997172154      -0.20415915880902      -0.86686481273905
H         3.16944367447583      -0.34069782493654       0.79964761075163
H         2.65589467238906      -1.52965420564144      -0.47740027404499
S        -7.94827680331722      -1.40929898202056      -2.09114361899974
O        -9.16057634402694      -0.76344504146508      -2.77724156862456
O        -7.74758032198936      -2.70801272546077      -2.88554027723487
O        -8.52397008322966      -1.90416351342261      -0.75629548506261
C        -6.47872365557565      -0.35594499285652      -1.95427764739480
F        -6.77889605322737       0.76383557707823      -1.20275670690137
F        -6.06679666721395       0.03170286224188      -3.21450761078184
F        -5.46835530228429      -1.06658697112882      -1.33973615188525
