42
C12H21F3N2O3S optimized with ForceField in AMS.
N        -1.26365082557413       1.31994318052577      -0.24123075689545
N        -2.70265305766907      -0.34469873680874       0.08008376727559
C         1.13142332434912       1.92443046481250      -0.18393811377131
C         1.61263958313049       0.47725658050425      -0.36473317637352
C        -0.23109265410069       2.15640564994891      -0.85043880783840
C         3.01558674415117       0.27670124112359       0.21875619823273
C         3.46255812632024      -1.18248067662710       0.06678998051478
C        -1.82403816156618       0.21616831241512      -0.77310826263308
C        -1.80438690570413       1.46110658654928       0.98622723842285
C        -2.69720638891733       0.42733900688101       1.18560870040160
C        -3.43429154701938      -1.59340316725598      -0.11396073074065
C         4.85669278556853      -1.40020271172875       0.64664135386557
C        -4.90061344532959      -1.31070539205579      -0.41257626843895
H         1.86865228049977       2.61808766483981      -0.64396063496972
H         1.06141741179837       2.16610493054810       0.89909479245665
H         1.62732993722987       0.22578873790746      -1.44826589345732
H         0.90705996401119      -0.21233217667059       0.14817252865393
H        -0.51763491826422       3.22541609147005      -0.74857497574313
H        -0.15283616797195       1.93430074121872      -1.93771424810428
H         3.00969256373913       0.55048523946278       1.29698131141748
H         3.73368834052366       0.94038860082742      -0.31176165207447
H         3.47383101244078      -1.46067315204958      -1.00975267733766
H         2.74692604120586      -1.85025684005632       0.59461206484862
H        -1.57774160333006      -0.18487886395031      -1.74855365192670
H        -1.55517633889394       2.24515404291301       1.68944999812201
H        -3.27772170194105       0.23825452799526       2.07952546067754
H        -2.99557921850507      -2.16420568453955      -0.96143005709488
H        -3.35144685932285      -2.21866854538013       0.79971457548747
H         4.86662112982024      -1.15584625904797       1.73019593711864
H         5.59849359010999      -0.76402319195388       0.11859384744825
H         5.14799799126813      -2.46440430245617       0.52030948740551
H        -5.36623575722476      -0.75911094535882       0.43114599829541
H        -5.44167489133925      -2.26955024632233      -0.55735761138774
H        -4.98825343722291      -0.70574536879240      -1.34000314559772
S        -1.95599245206686      -3.53143377635892       3.85178862257497
O        -3.06005384702185      -3.17389749171844       4.85777765556680
O        -1.46614709266537      -2.15937477480412       3.36507230451335
O        -2.74269971819411      -4.07042947539227       2.64839907199555
C        -0.66539830577246      -4.63976929861267       4.48153561428471
F        -1.22686816760721      -5.85754356226203       4.81426310600639
F        -0.08256959563732      -4.08012908988987       5.60209889987331
F         0.29602341949520      -4.82740768185032       3.50727439612529
