27
C7H10F2N2O4S2 optimized with DFTB in AMS.
N        -0.10922093920973       0.83471249722496      -0.50556144781516
C         1.18720521671591       0.90869377281802      -1.20058514350157
C        -0.38768148698934       1.69260204646891       0.48891236108378
C        -1.03779787068580      -0.02524660861186      -0.95205533379870
C         2.36042792469679       0.87743583991819      -0.23290003804151
C        -1.62679263187995       1.68893570650077       1.09377458761471
C        -2.29348445370727      -0.06363269436152      -0.38281298002712
C        -2.60111685505828       0.80240729062803       0.65706944718942
H         1.23548378917467       0.06691417975883      -1.89447472946539
H         1.18549242128667       1.83988935856342      -1.77953085374621
H         0.38051190842794       2.40158431714392       0.76564384657976
H        -0.76431902622449      -0.65900995959430      -1.78599365755033
H         2.41601831432820       1.79683446870940       0.34739311597184
H         3.27816670853539       0.78311124827818      -0.81158954241920
H         2.28137349281203       0.02822158006648       0.44551593914368
H        -1.83063083347126       2.40283732895858       1.88117289179871
H        -3.02892925456253      -0.75481072758956      -0.77369066705703
H        -3.58748099608539       0.80050439684199       1.10414243494126
N         0.14144819102391       3.37673855058967      -2.99617444855625
S         0.46706485877067       4.63522562100272      -2.07846873947553
S        -1.28088909811626       2.69311682594225      -2.82118218887888
F         0.95772951031850       3.85641841591923      -0.68424904488186
F        -2.18925891070807       3.44023147694238      -3.91531828095772
O         1.67157729558954       5.22542530875206      -2.54638051726061
O        -0.61190211914796       5.45040021793127      -1.63881098025994
O        -1.97295949059109       2.88228913985419      -1.57882703007285
O        -1.17142125904283       1.34679386574381      -3.31099533745728
