37
C11H24ClN optimized with ForceField in AMS.
N        -1.38544348125495       0.18416869364975      -0.08400734782137
C        -1.65424901197023      -1.00127050282943      -0.95573589772315
C        -2.50146043699479       0.19302515871100       0.91092570652017
C        -0.08189097252024       0.01447884372398       0.63678014289868
C        -3.03167692354774      -1.54008482257405      -0.61636759460668
C        -3.22876403692589      -1.13390016432572       0.81663501901770
C        -1.42067430073810       1.43049123644254      -0.91507202166098
C         1.16702049192845       0.00547399756134      -0.27795910313227
C        -1.16148153554598       2.73100847720307      -0.13387728075656
C         2.41881555794065      -0.38889670899719       0.51723900534007
C         3.67321887121222      -0.34592155617362      -0.36320496321206
C         4.91614755724483      -0.74259930397327       0.42857003765332
H        -1.59858901226352      -0.76790125461407      -2.04413279646589
H        -0.93161004372393      -1.83037531202096      -0.77577445320922
H        -2.15744929844040       0.36347034360556       1.95731035103309
H        -3.25255042372131       0.98749646647329       0.69340045362886
H         0.05140337552626       0.81807147205938       1.39483777522600
H        -0.10310202963857      -0.93834320563839       1.21508866745745
H        -3.79840001847550      -1.04959842610803      -1.25636502719166
H        -3.09043768813231      -2.64355464579585      -0.74087651427555
H        -2.74873126276480      -1.87823469142399       1.49017138556088
H        -4.30696527983393      -1.03803918674867       1.07131515558667
H        -2.41438743216372       1.52458370395702      -1.41039361155837
H        -0.68220083896115       1.37205794379506      -1.74443968068246
H         1.32835405290211       1.01657792114867      -0.70594069492246
H         1.03662367081209      -0.70841026629898      -1.11758439403696
H        -1.84166385711572       2.83133682294520       0.73588711933042
H        -0.11033636524722       2.78862879176549       0.21312887486023
H        -1.33742767236854       3.59748078426744      -0.80569756316785
H         2.28969185439374      -1.41796980525120       0.91893343968020
H         2.54672121549994       0.31066527577769       1.37278254452455
H         3.55547899546343      -1.04278795983623      -1.22154609494164
H         3.81534430632257       0.68156889309466      -0.76171621321584
H         5.80658949694633      -0.70779211645336      -0.23404293707010
H         5.07615308861363      -0.04115244617176       1.27502694529287
H         4.80854687778747      -1.77469178182185       0.82481525708636
Cl        5.74774398835481       1.44545735487548      -3.06418445784648
