43
C11H24F6NP optimized with DFTB in AMS.
N        -1.34916172791908       0.46990441657216      -0.20890347687802
C        -1.69239759745561      -0.70505983911793      -1.08977338042625
C        -2.50246127376292       0.60909213252980       0.76666418270307
C        -0.08430308398603       0.21426111633562       0.55027256999536
C        -3.20848469716596      -0.80012609330475      -1.05718290685461
C        -3.54411109933500      -0.43942260383989       0.38534296009501
C        -1.24511498765533       1.69841588501305      -1.07524087118058
C         1.14750497344269       0.02912167607056      -0.33436550090158
C        -0.88447440460809       2.97105108387008      -0.32824672821140
C         2.34762301830285      -0.36924558030565       0.53299642765822
C         3.60803522689305      -0.54385255310439      -0.32037123275459
C         4.80724271365863      -0.94060284871552       0.53814675665636
H        -1.28706908704992      -0.54236755507329      -2.08772741959635
H        -1.23925087560672      -1.59873833123598      -0.65301739964121
H        -2.12911099665544       0.47318233523177       1.78213100593828
H        -2.91203227578416       1.61298365365039       0.66823727831494
H         0.06432246148078       1.05704956734720       1.22924284797226
H        -0.25126797934959      -0.68612837240343       1.14817202345868
H        -3.65604867070704      -0.08242134910667      -1.74584967562449
H        -3.54048911361224      -1.80435082815143      -1.32188463956429
H        -3.46177742282586      -1.31582861003186       1.03389604984008
H        -4.54803928800498      -0.02332115860384       0.47030936303951
H        -2.21444588054081       1.81106014524794      -1.55800628417431
H        -0.49828434122747       1.49191771515828      -1.84458040240168
H         1.37989048841490       0.95771245058798      -0.86135756695836
H         0.96513341891615      -0.74834037111700      -1.08097714273237
H        -1.52620200567241       3.13265870939996       0.53560543283474
H         0.15669467927041       2.97638551310104      -0.00650258439149
H        -1.04271153493367       3.79842478212819      -1.01955516829777
H         2.12481297947223      -1.30579916479019       1.05539511375261
H         2.52061925193864       0.40327367109325       1.28974498971726
H         3.42929827235228      -1.31429138149976      -1.07774913277778
H         3.82572409221849       0.39422270680726      -0.84146754692690
H         5.69025544510301      -1.05858775786839      -0.08957040046222
H         5.01211426963962      -0.17405607731942       1.28650273732047
H         4.61564888979492      -1.88434133184666       1.05035233647357
P        -4.61948580965924       2.83192059178787      -2.30134059925160
F        -5.92872084551167       1.88746944147022      -2.54004005771531
F        -3.65678085527571       1.64966915459733      -3.01327412867981
F        -4.80581407491032       3.55846333298300      -3.74018961518903
F        -3.23384939601500       3.71170449756735      -2.01072898504425
F        -5.50929049449636       3.95980611913152      -1.53882711783651
F        -4.35753923327203       2.05033269595419      -0.81957708309766
