41
C11H22F3NO3S optimized with ForceField in AMS.
N        -0.10693899636251       0.02678441313709      -0.07300630557197
C        -1.01495662192014       0.53652898531088      -1.15172885113767
C        -0.62905287362714      -1.29314603529023       0.41069662019221
C         1.23720686443698      -0.19356054290004      -0.71123158442664
C        -2.49071609072270       0.64610000005800      -0.73109266108565
C        -2.10549156194677      -1.26101739013197       0.85636946521612
C        -0.01861880314323       0.98659638585826       1.08242813573589
C        -3.00765653937404      -0.70181463830623      -0.23951798896087
C         2.36810619019259      -0.65298126369220       0.24332161897196
C         0.59216039541607       2.36349177330806       0.76184514644562
C         3.67094562124114      -0.87147735861923      -0.52075091721403
H        -0.98158997111905      -0.14610395299941      -2.03330449708584
H        -0.67903507964884       1.52250769001559      -1.53532035505492
H        -0.04038357793459      -1.66080244551783       1.27850605090750
H        -0.53857738782247      -2.06489010170000      -0.38852969058710
H         1.57547029780389       0.73005701076605      -1.23223775650089
H         1.15201082717558      -0.95892288661900      -1.51773314531147
H        -3.09364690521637       0.95917942730714      -1.61067020601478
H        -2.63209951588995       1.42518610955754       0.04585417400782
H        -2.22508617465738      -0.67046629922056       1.78840953205421
H        -2.43226509636638      -2.29714485162591       1.09103381147538
H        -1.01535766557620       1.18124692846403       1.52252571955864
H         0.56373664949828       0.53959912232663       1.91683893285000
H        -4.03963985461859      -0.58146991335723       0.15531686338405
H        -3.04580324157963      -1.41788349345626      -1.08989803747598
H         2.56631891702550       0.11100282793206       1.02184976251289
H         2.10482615161928      -1.60889854349394       0.73863770416461
H         0.62000815049342       2.96628790265325       1.69398923495724
H         1.63497543453080       2.28291727126248       0.39712014275836
H        -0.02414494877801       2.92500092423569       0.03255182179860
H         4.46400655452797      -1.20421580189539       0.18171270933508
H         3.53863449755695      -1.65281224236677      -1.29944940592519
H         3.99919025101201       0.07581350263351      -0.99857581632871
S         6.91392926779626      -1.58204479220374      -2.90411430881145
O         7.01174044430353      -1.19280593519909      -1.42189142320034
O         6.32409345338805      -2.99898535896810      -2.85417357474112
O         8.37835907287898      -1.82994498970228      -3.29449142799338
C         6.02221553987978      -0.40549773951618      -3.96231620245868
F         6.63422516583351       0.83123126815261      -3.89521205609708
F         4.71417314483473      -0.29373892911130      -3.53427901525562
F         6.03798211105868      -0.85549768148598      -5.26821531928679
