22
C8H11NO2 optimized with DFTB in AMS.
N        -0.59810972100627       0.12862948828289       0.06114405290261
C         0.22887487583912       1.14210134015703       0.46209192691531
C        -0.09255464413325      -0.94952858434900      -0.74331660606188
C        -2.03744650634514       0.36586096628570       0.00353160225051
C         1.57258793336038       0.99555124245895       0.48515884997494
C         1.35564801975195      -1.20221996030667      -0.47995529335097
C         2.13704941454199      -0.25062548711763       0.05365664937973
H        -0.26725133316869       2.03028506857296       0.83858320170554
H        -0.71973189407821      -1.84015463431518      -0.59584816939747
H        -2.55429693784670      -0.59305154868646      -0.01287866565543
H        -2.34269857801816       0.92815846677953       0.88649002263351
H        -2.30278227015242       0.92962516252079      -0.89556994923202
H         2.20936609523453       1.78614397917362       0.85650207337707
H         1.74246875501108      -2.15495773032305      -0.81839280198983
H         3.19825859846300      -0.42123768596171       0.19792252617251
C        -1.25701621690969      -0.58141014932384      -4.28675000359214
C        -1.31481173631745      -0.98579403399305      -2.83113790807235
O        -2.23121870089059      -1.58906287921943      -2.33496210497069
O        -0.22526399098240      -0.59492025737437      -2.18232132788408
H        -0.47871139551252      -1.16260894963584      -4.77949411128003
H        -2.21561729290263      -0.77533798602478      -4.76092934662027
H        -1.00073614193794       0.47314317229956      -4.36499569310458
