47
C13H26F3NO3S optimized with DFTB in AMS.
N         0.14161582134236       0.38655373932792      -0.15259803000305
C        -0.62597350030634      -0.20093712040330      -1.29724826020231
C        -0.82904892897746       1.01150349644724       0.80480636438577
C         0.97562115434436      -0.64313200114859       0.57743698279485
C         1.03187246650960       1.46477007530688      -0.73944929425809
C        -1.65941700703316      -1.22498368629544      -0.84742816277748
C        -1.93726094786050       0.06804139726223       1.26536503548969
C        -2.67172447560513      -0.56364243679020       0.08489997309287
C         1.72160171941576      -1.64024682780444      -0.30533611981243
C         1.60575505494471       2.47077928195130       0.25708898706444
C         2.50870733135949      -2.60047467663414       0.59819166558138
C         2.51401558291005       3.44169643818405      -0.49798148232623
C         3.32011416513656      -3.58616721306045      -0.23774681870700
H         0.09339027475558      -0.63561916398730      -1.99199281641443
H        -1.13388854045873       0.62825359313462      -1.79815390993804
H        -1.26530667727207       1.87576218303341       0.29627245568436
H        -0.25909203699140       1.35457583163876       1.66948659938821
H         0.30859414777069      -1.18618190696101       1.24912837686574
H         1.69358311317294      -0.08213379854634       1.17884195231679
H         0.42881250583786       1.99870142621446      -1.47935802809287
H         1.84763902924967       0.95167184555070      -1.25277640501882
H        -1.18007035085952      -2.06929738068233      -0.34700918745104
H        -2.16305289327800      -1.60496451635596      -1.73985272675544
H        -2.63450347091287       0.65925776801265       1.86494538170905
H        -1.53125398968438      -0.71481714742037       1.91097248074186
H        -3.22741916316618       0.20541755970830      -0.46142407738516
H        -3.38531386804471      -1.30570456357418       0.44996598954791
H         2.41203397962893      -1.12044922039414      -0.97183394729701
H         1.02429188904919      -2.22358365439595      -0.91402373708156
H         0.80310761705854       3.03506309527972       0.74117605559200
H         2.18985817505176       1.96020048584064       1.02503349503614
H         1.80926456964017      -3.14401586908656       1.24438781711188
H         3.18532878206869      -2.02544227268311       1.23463357617662
H         2.94324142864346       4.15442434863634       0.20480767320767
H         3.32505734863081       2.89996171648831      -0.98207382659850
H         1.95033015057932       3.98866296209669      -1.25555270793496
H         4.04612587246774      -3.04713340912149      -0.84563518560434
H         2.66919294778813      -4.16708569082754      -0.89418549872601
H         3.85592446535086      -4.27061436863952       0.41938644409129
S         4.60814439690245       0.21172891646217       0.13237739948269
O         3.95284217743754       0.61650312862567      -1.10868980987466
O         5.27070296438174      -1.06922254315670       0.07759732641553
O         3.77912843204670       0.42053226067344       1.31664286795697
C         5.96534350837950       1.45393836930123       0.32937871888622
F         5.44720486887708       2.68313104266165       0.39631426622881
F         6.80176093951228       1.41741349643798      -0.70007558182780
F         6.65679008130591       1.23893055489271       1.44100778923851
