56
C16H32F3NO3S optimized with ForceField in AMS.
N        -1.08677568862012       0.82759567765545      -0.18153724045750
C        -1.58238604496283       1.86552171364711       0.78043657272639
C        -2.05474904938139       0.73366435227805      -1.32251361678843
C         0.21550313186349       1.29558095861314      -0.76889334440272
C        -0.93304391595653      -0.48540404186101       0.53665775927512
C        -3.02793618834164       1.62680281497394       1.26660834009612
C        -3.50148904897108       0.43731815836267      -0.89588918210552
C        -3.99238081823656       1.49248675594437       0.09089258456115
C         1.41781772701443       1.36396068326816       0.20521087859267
C        -0.34661792250319      -1.64588612646067      -0.30107590886503
C         2.66300450683339       1.88275176949357      -0.52727178691833
C        -0.22898008287327      -2.91484776175527       0.55313448566849
C         3.88155795877124       1.92790042642510       0.40073851513247
C         0.35826081102631      -4.07158784118108      -0.26048559389364
C         5.11275298892986       2.44489838475535      -0.33880197165708
C         0.47714052065964      -5.33655677035794       0.58360011684813
H        -1.55251188961340       2.87678518317263       0.31271035443420
H        -0.93699324989854       1.91307905221016       1.68389511521041
H        -1.73720939824805      -0.02529157188450      -2.06744667900674
H        -2.07605908459682       1.69775927721433      -1.88376007112692
H         0.08687767186685       2.31199357965113      -1.20917198082182
H         0.50588039474433       0.64896768743914      -1.62727510248263
H        -1.90547235769515      -0.83916440850869       0.92908955813027
H        -0.30442562994756      -0.35272480899391       1.44466115727991
H        -3.34519319338360       2.48826724659581       1.89259569542448
H        -3.08866189826015       0.72838258433425       1.91527472948428
H        -3.59323445994519      -0.57931943371080      -0.46151984686690
H        -4.15242787166401       0.45968439007217      -1.79645379937625
H        -4.07942948931274       2.47248094672009      -0.42803800322084
H        -5.00012407781225       1.21063967269863       0.46480091691336
H         1.19736340848974       2.04663212820195       1.05104651697074
H         1.65323635949294       0.35797618995887       0.60885696063403
H        -1.00710622058615      -1.87378959383334      -1.16181387045433
H         0.66268255068518      -1.38839872369452      -0.68140797258788
H         2.46082761990157       2.90506000814430      -0.91665410967721
H         2.88690630489141       1.21556464763368      -1.38919580626194
H         0.42748464068000      -2.71125281585577       1.42810531024157
H        -1.23642775147061      -3.20332842981311       0.92696863968698
H         4.09669619307514       0.90801942065634       0.78778804387886
H         3.67184692294240       2.59653985007564       1.26377947209349
H         1.36706686045102      -3.78833528789188      -0.62580205311552
H        -0.29010875264182      -4.28243467221540      -1.13878180271640
H         5.98115832498814       2.46670075700426       0.35243462935839
H         5.35651888915599       1.77967924943516      -1.19464187291875
H         4.93235620266261       3.47427921620093      -0.71570973757790
H         0.90894069487198      -6.15353367433163      -0.03185953607226
H         1.14295804741180      -5.15775048067001       1.45466916603248
H        -0.52390224710455      -5.65413890709043       0.94549063869332
S         3.64828670068438      -3.99163898105290      -3.68871857669288
O         4.21189276347756      -2.56309840370316      -3.70805600777219
O         3.38483159269928      -4.24300725392164      -2.19759483209775
O         4.88356582574891      -4.85851161124606      -3.97321128672846
C         2.23324015588595      -4.28045868951421      -4.78689329791589
F         2.61016881525582      -4.04103128082291      -6.09455749033640
F         1.20016730687017      -3.43000071943593      -4.44211597028084
F         1.81242675649566      -5.59056437052962      -4.66184170137035
