37
C11H24ClN optimized with ADF in AMS.
N        -1.21381220163128       0.33497600548930      -0.28697799766129
C        -2.10358782153904      -0.73937014614592      -0.86479703030243
C        -1.97793773502465       0.77973636520767       0.95357385387294
C         0.12720579889137      -0.24343272860863       0.14833943145227
C        -2.64462254559557      -1.50585499781588       0.34544430647924
C        -2.52462087217291      -0.51789496121495       1.53936273647022
C        -1.05316850043349       1.47143125217773      -1.26792578181701
C         1.07675161877759      -0.59992916689928      -0.97947973597610
C        -0.21324561261323       2.62183427230363      -0.75310076565114
C         2.38347529253260      -1.16122872577349      -0.39520203053355
C         3.22201603450476      -0.11761534796613       0.34714931169798
C         4.51561182982815      -0.70973262682162       0.90390400888522
H        -2.91079570150116      -0.21753034250215      -1.40296862041899
H        -1.52720067191737      -1.34321716911821      -1.57849723364532
H        -1.26697813667726       1.32113737947276       1.62580344570277
H        -2.78320128182363       1.43853507204318       0.59017208802771
H         0.54648315723539       0.50486897337553       0.86273020905443
H        -0.11487989234155      -1.13903505359711       0.73951708064743
H        -3.68446836345760      -1.81252138216691       0.15856589387250
H        -2.06376782812118      -2.42244496451528       0.52724231588823
H        -1.83467597952121      -0.89974400945901       2.30792700587281
H        -3.49147036390029      -0.33732117237981       2.03071567871662
H        -2.08045170985466       1.80092954514325      -1.49391466237268
H        -0.63240650133546       1.03112903613565      -2.18498742998633
H         1.32593956132017       0.29283775695809      -1.57821182165622
H         0.63582225847023      -1.34468063273128      -1.66767406656449
H        -0.61302479053160       3.04387777228796       0.18020151292989
H         0.81955353084701       2.32365305385817      -0.52928603897764
H        -0.19760808684736       3.40446216193416      -1.52837334187173
H         2.97982267794239      -1.59128670775720      -1.22009145270446
H         2.14976133476395      -2.00046901155639       0.28744954417939
H         3.46408147973059       0.70437966000126      -0.35220502972572
H         2.64055685674945       0.33882564469324       1.16890815348972
H         5.10799287292192       0.05591356168317       1.42698876425626
H         4.29923397269349      -1.51341753252341       1.62661409341663
H         5.14153848707023      -1.13670453664370       0.10224769303989
Cl        0.67098235826122       1.88277186903161       2.55371381951296
