43
C13H27NO2 optimized with DFTB in AMS.
N        -0.82861457363312       0.00902307412399      -0.41298456535365
C        -0.69650119673712      -1.39751097490628      -0.91016701393080
C        -2.24099478895624       0.04973518189583       0.08788656362740
C         0.10063637532267       0.27947966058365       0.74533107383762
C        -1.48091179205123      -2.25958579126314       0.07211900414052
C        -2.47954845597718      -1.30616127468615       0.74688666144065
C        -0.63649381359349       0.96614242980900      -1.55352968708142
C         1.58245557790940       0.49845632618140       0.42368661926916
C        -0.80482900646123       2.42259903737538      -1.15721863437874
C         2.43853920439805      -0.77013080023065       0.36789087377293
C         3.89371175299953      -0.39193592804028       0.07027641320576
C         4.78016112427551      -1.63202157906469      -0.01777229965493
H        -1.12327377737366      -1.43201476780980      -1.91322116393177
H         0.35439693245026      -1.65988150858896      -0.99259764819892
H        -2.37668766696435       0.89065011430007       0.76781162761763
H        -2.89307064457394       0.17787300888516      -0.77931849423021
H        -0.28598852219810       1.17813065026481       1.23328508283197
H        -0.01565780495000      -0.55548745619755       1.44133508760510
H        -1.99162557563714      -3.06411100045027      -0.45965729199216
H        -0.81868398553817      -2.71220112292841       0.81331808209909
H        -2.30039289359647      -1.25122825251643       1.82303830352021
H        -3.51213851785408      -1.62352056143355       0.59135814982544
H        -1.37329062156502       0.69460372868605      -2.31308263068121
H         0.36874515553891       0.79422015201930      -1.96797280683293
H         1.96746939362772       1.14074223098587       1.22379169583537
H         1.70837691742445       1.04064217731189      -0.51498527899865
H        -1.79017051663058       2.62257558171257      -0.73503223924443
H        -0.04326581294756       2.73578533232902      -0.44498024353256
H        -0.68826109079330       3.02191581731792      -2.05993892870762
H         2.09083809105621      -1.43139869333461      -0.42908353353947
H         2.36900428583631      -1.31345708939815       1.31795143255745
H         3.92167713241051       0.14519119882101      -0.88296266741471
H         4.27097255772182       0.27597120808385       0.85272008048896
H         5.81209671705276      -1.34019161585469      -0.21400052710235
H         4.75086327187069      -2.19639388440066       0.91643743348543
H         4.44417659654293      -2.28228981735728      -0.82658275177452
C         3.21539835752096      -0.72166338510916      -4.10572477682746
C         2.10147703227871      -0.31775011524253      -3.11187991618716
O         2.20242410132895       0.81041839358733      -2.58042746664316
O         1.19810631325194      -1.15637876942508      -2.90694524153074
H         3.67639448006428       0.16554761870429      -4.53534696271236
H         3.97088115511856      -1.28635854613760      -3.55884788317974
H         2.80424926833081      -1.35417866820245      -4.89030679199905
