29
C7H16BF4N optimized with ADF in AMS.
N         0.83395072169106      -0.25987806451584      -0.31574319890007
C        -0.36459161881384      -1.11173684960135       0.02676462284145
C         0.47080181794925       1.08796469263875       0.29316245849618
C        -1.57597477712038      -0.19592901606387      -0.14979695664927
C        -1.02591291864334       1.24379547912985       0.03026830581457
C         2.11655777892231      -0.80156057908416       0.28688452771020
C         0.98164421142397      -0.10447221518748      -1.79955223338135
C         2.42646179771048      -2.23021333015700      -0.10813655051604
H        -0.23160123604589      -1.40684935717667       1.07807306403569
H        -0.37420157076607      -2.01028356206145      -0.60221678411089
H         1.13192804147345       1.84978184275674      -0.13998416058386
H         0.70298782217196       1.00784015538201       1.36306278961368
H        -2.34861151626507      -0.44755288681247       0.59002535961634
H        -2.02831718880630      -0.32733979670026      -1.14331702442086
H        -1.21413635281426       1.85141284838176      -0.86672592370886
H        -1.49847926381396       1.76606439976755       0.87371695695280
H         2.92736096028150      -0.12325725302981      -0.01533926850474
H         1.99480317044742      -0.70176136548066       1.37506400114682
H         1.15014325880673      -1.08960115303183      -2.24783639563274
H         0.06033532504556       0.33034190515541      -2.20428659416282
H         1.83069971627851       0.57120894655466      -1.97445108640025
H         3.37727168594114      -2.50072401901361       0.37335804291449
H         1.66527552996034      -2.95014418484450       0.22648838319351
H         2.58088562412608      -2.34202310772130      -1.19023692857471
B         3.88481489176329       2.15743193199239       0.01363191549121
F         4.63644129389085       0.95635974462596      -0.18261906274895
F         4.69557976244316       3.28729539618288       0.02686631333237
F         3.13649085584531       2.03140255918935       1.22707944086055
F         2.92348694151675       2.23946906982498      -1.08214724972447
