35
C9H20BF4N optimized with ForceField in AMS.
N        -0.40512464645015       0.16577819840220      -0.06232731528512
C        -0.97816932935464      -0.87659440991078      -0.96849721171972
C        -1.45987443767459       0.40476138247796       0.96997370585284
C        -2.44020003064346      -1.07085047498196      -0.61198735595263
C        -2.51235608602454      -0.67895413068117       0.83638456851185
C         0.83581767279457      -0.35145776811324       0.60144703287669
C        -0.15110006314128       1.42149370768397      -0.83963371734080
C         2.01687768828253      -0.61373250073371      -0.36468578303524
C         0.46952932625308       2.56590884562241      -0.01640854081333
C         3.16873042989625      -1.30981009979232       0.35406657753868
H        -0.48314516967767      -1.86643460265854      -0.83812239240942
H        -0.88524768459559      -0.61866080471706      -2.04815846849046
H        -1.98130724394434       1.37836802583744       0.82066933476459
H        -1.06154063352807       0.41817280519295       2.00986355031487
H        -2.76913683044189      -2.12218669896071      -0.76586209768794
H        -3.07268647961356      -0.38883559264800      -1.22200020805414
H        -3.52540501138375      -0.30959853322583       1.10884558398694
H        -2.24526278763057      -1.54699086718324       1.47857684727310
H         0.59951288728164      -1.30018198804804       1.13818988472347
H         1.18111763449576       0.35645560511890       1.38800453708822
H         0.51287988908012       1.22021199403969      -1.70855659248409
H        -1.10545110079616       1.79376915618885      -1.27810292827607
H         1.70142641474037      -1.24949996041948      -1.21807888849347
H         2.40320476973730       0.34316566302699      -0.77255880078697
H        -0.09750033624598       2.75540698582337       0.91740205699471
H         1.52661187511215       2.34661636574560       0.23689428807847
H         0.45853850323688       3.49793743110344      -0.61932616781797
H         3.54593889884183      -0.67284131643511       1.18273390847754
H         2.83602286168675      -2.28786980277862       0.76266697064059
H         3.99886872257225      -1.48955890617406      -0.36143247898748
B         2.13764016596152       3.24497440839080      -3.77683219695528
F         2.73536324515313       4.43624860354833      -4.26768376444995
F         2.86603569352430       2.77904410513011      -2.64997012106247
F         2.15357190415351       2.25358649095138      -4.79362028288512
F         0.79539884104230       3.51168355137748      -3.39770622623488
