45
C11H20F6N2O4S2 optimized with ForceField in AMS.
C         2.69094656694791       0.35981397349399       1.56416702871879
C         1.64907043885170       1.29890205352222       0.97398074830513
H         1.40123740846676      -0.81327508234508      -0.90380250530914
H         0.41129403037667      -1.67633052857726       0.32119217277376
H         3.18206602481598      -1.41314123707579       0.40236214799970
H         2.13854468501594      -1.71417256230438       1.85135597846642
H         2.61919055588004       0.35847786071461       2.67405189616559
H         3.71832388379565       0.66579443820035       1.26733372572762
H         1.36752888979884       2.09187716780883       1.70473127277371
H         2.12032123502905       1.81042407889130       0.10123496792062
H        -1.21552392756852      -0.45299551004831       1.48927303545725
C        -0.43145810847857       0.30407558974177       1.70515892651197
H         0.11370908310123      -0.05295680586825       2.60680632663860
H        -0.93083411925298       1.26383994573236       1.96459814052832
C        -0.19405983406669       1.16761234248307      -0.59752372821366
H        -0.32599567608777       2.24543846004788      -0.34514683868145
H         0.45345181164823       1.15585416580901      -1.50403504981056
H        -2.31254081210353       0.73949525786966      -0.14195967248452
H        -2.97704262262240      -2.09630909380239      -2.62804169219574
C        -1.63110870669319      -0.76429286969827      -1.57016808662409
H        -0.81577606575413      -0.89296849040195      -2.31457904388881
H        -1.50413295377321      -1.50522400530273      -0.75738638020570
C        -2.96909678021814      -1.05343251302739      -2.24705719640206
H        -3.12820548204100      -0.36274618527883      -3.10241419789353
N         0.48638181456294       0.48127158507155       0.54897220311537
C         1.09484317930096      -0.81492313469994       0.16649897998065
C         2.34746289200298      -1.01085261514103       1.01505721797995
H        -3.80165016042429      -0.93436788762538      -1.52062626470831
C        -1.60311726888939       0.65657905645668      -0.99174824324572
H        -1.98233589689955       1.35336642881466      -1.77221083737352
N         5.12255566443919      -1.04127655613182      -2.13006892646702
S         4.50698333618620      -2.51984006370181      -2.47944749920981
S         6.48389758745989      -0.46147240247143      -2.83648205470775
C         5.19052091345841      -3.72436688981341      -1.35789183965383
C         6.03411484077763       0.60468291051978      -4.19092120335736
O         3.01503530138674      -2.48953304270847      -2.30902798850896
O         4.84116816708529      -2.90914958118970      -3.89264775162212
O         7.33806113398169      -1.58711144568510      -3.35032568973526
O         7.26103422509393       0.33827466296075      -1.82982206343097
F         4.63039509019229      -4.96150069576791      -1.61168775896518
F         4.91373159777035      -3.35621540604873      -0.05541303401194
F         6.55931673088719      -3.79825909260760      -1.52962453903232
F         7.17711288091373       1.07744231602646      -4.80684437311715
F         5.29636180475188       1.67139786733967      -3.71413390626556
F         5.27865269189410      -0.10089735968164      -5.10778196354141
