54
C14H30F2N2O4S2 optimized with ForceField in AMS.
N        -0.07989337463123       1.47810583865024      -0.02335043857415
C         0.49572515125171       2.42571560124690       0.97977736223164
C        -0.75442006496780       2.35060729867339      -1.03406028752108
C         1.01561277875755       0.70059768530741      -0.68813032698423
C        -1.08403844984083       0.59255533836071       0.65197948287386
C        -0.09605040478839       3.79680900396203       0.72430876314213
C        -0.36753758194061       3.78970861330290      -0.75230374038144
C         1.77427570977443      -0.26818260939453       0.25061825016178
C        -1.74644237469375      -0.45633499270481      -0.27451992514684
C         3.00084508195827      -0.85902842373891      -0.45455055583994
C        -2.86224745476775      -1.20387189044467       0.46644446730520
C         3.72811983026797      -1.86211516717736       0.44889045070621
C        -3.55612053279864      -2.21736467575721      -0.45146821493510
C         4.94137308131731      -2.45864185233942      -0.25732233393932
C        -4.63761444608472      -2.98777524848287       0.29962482214845
H         1.60107286472577       2.52710741469449       0.87762039572482
H         0.30506351325611       2.12237871950104       2.03478241028502
H        -1.86535027690634       2.29735255854907      -0.96309386766726
H        -0.49450708619858       2.09049854357325      -2.08584433517087
H         1.75163504983255       1.40771220007927      -1.13774155660182
H         0.61390144867550       0.11361031166229      -1.54386159046781
H        -1.88734285474257       1.22143985668870       1.10233684490884
H        -0.61775108438639       0.05549216877764       1.50784552009508
H         0.60098237755246       4.61223687104179       1.00804285977670
H        -1.05084933815050       3.90642824500787       1.28450692080019
H        -1.17850667692251       4.50051969017297      -1.02176887821769
H         0.56133956321700       4.04759197338238      -1.30829122795792
H         1.10757230605122      -1.10465544504416       0.54859542517595
H         2.10559336592194       0.25777431806259       1.17076456090300
H        -0.99430113635787      -1.20165800038090      -0.60767888313596
H        -2.17366366244645       0.03205164574154      -1.17528497755607
H         3.69942322934813      -0.03734999005288      -0.72781870589168
H         2.67610818786761      -1.37273957021132      -1.38659393187585
H        -3.61538975781082      -0.47368205882630       0.83706747309298
H        -2.42592480838783      -1.73612090533126       1.34081105600809
H         3.03567653669855      -2.68587039621662       0.72941206974348
H         4.06643684017053      -1.35343094265930       1.37799609395398
H        -2.80979048769281      -2.93992942658405      -0.84809524839464
H        -4.02366147750892      -1.68578693037540      -1.30904036467245
H         5.44570779098846      -3.18033891764296       0.41923586944728
H         4.62711382498408      -2.99472338195920      -1.17842499502263
H         5.66344455303689      -1.65832821601144      -0.52635376288995
H        -5.13070871784821      -3.70326023804359      -0.39162046421847
H        -4.19053600403701      -3.55776339852545       1.14208933679812
H        -5.40541021760407      -2.28921237482075       0.69578785034833
N         3.81284127918230       5.47819752263075      -0.86221819354419
S         3.27989952923585       6.31686569371272       0.43846521554894
S         4.92943835113496       4.29074288716827      -0.71316633466513
F         4.38725827220053       7.51391792281019       0.81602680593837
F         4.18780586930960       2.90371888619380      -0.14091623880597
O         1.95752237111085       6.95368824263096       0.11826831889649
O         3.13195600427803       5.40032407878622       1.62057797179773
O         6.00014446025496       4.70780211745617       0.25599150548710
O         5.54253613595351       4.00562159809784      -2.05454987862131
