41
C11H24BF4N optimized with DFTB in AMS.
N         0.33535780173091      -0.09826682769285      -0.15450367851078
C         0.09451193423815       0.56252440781567       1.17393145021083
C        -0.78844005991817       0.23548189284090      -1.08236029871321
C         0.47184832009226      -1.58180266969374       0.07338205201414
C         1.63652659563199       0.39551497051075      -0.74576707856903
C        -1.25018175774983       0.19530449397840       1.78501427342608
C        -2.15415208168595      -0.14963987283797      -0.52356784238526
C        -2.39490013023988       0.52355050682381       0.82739890798557
C         0.81106896816971      -2.41006230260084      -1.16376386504592
C         1.83526930069698       1.90886386874259      -0.78983411925287
C         0.82027324202636      -3.89009982261177      -0.77893990878651
C         3.14330414703159       2.19530103980292      -1.52908132323019
H         0.91812868526711       0.27763245217795       1.83049464295291
H         0.13168759465964       1.64026655161613       1.01117888474588
H        -0.75424159491075       1.31501597432209      -1.24789586132756
H        -0.60408690428635      -0.26670873051607      -2.03408302419215
H         1.26463043676613      -1.69917213124657       0.81741631062146
H        -0.46434313576408      -1.94190643942425       0.50174087415140
H         2.43650435733758      -0.04799835441964      -0.14963853585279
H         1.68324313807168      -0.00426897930509      -1.76198677415967
H        -1.28265494496581      -0.86073357813566       2.06467463842939
H        -1.35765684384076       0.78029517439977       2.70208837232908
H        -2.90897217010662       0.17827966098698      -1.24342451934044
H        -2.23891054822584      -1.23524187774459      -0.42668462347822
H        -3.34377263348133       0.18015879842607       1.24618447147297
H        -2.45664385580173       1.60773899677406       0.68725934475600
H         0.07802593752814      -2.25012377147981      -1.95981771520838
H         1.79801164165272      -2.14183226900548      -1.54659470083183
H         1.00365605739659       2.40772906243515      -1.29740471665938
H         1.92340125341275       2.30663635141456       0.22293891035221
H         1.07881575632128      -4.49369134023630      -1.64826376085532
H        -0.16091625935650      -4.20044218914471      -0.41764988271849
H         1.55556950063939      -4.07377122064367       0.00435272919028
H         3.32067841066365       3.26989846562466      -1.55358824656547
H         3.10270248210366       1.82263646214309      -2.55393401912401
H         3.97072700362430       1.71364796509130      -1.00814410562984
B         3.53550563560107       0.25112327243132       1.99718854830852
F         4.22865102412407       0.28127414108802       0.77582985682260
F         2.65310835172539      -0.88221630239063       1.95417760016956
F         2.69780073874012       1.39314635096172       2.05742095128536
F         4.36931335598041       0.17594969342172       3.07224841781312
