46
C14H26F3NO2 optimized with ADF in AMS.
N         0.41922731871534      -0.66628753544763      -0.02192283685132
C         1.59274091331965      -0.54909806719006      -0.98026881269995
C         0.79960142592522      -1.83162273690791       0.91854819618120
C         0.22665348211524       0.60212579695985       0.76517128818586
C        -0.82749221440735      -1.03951884132739      -0.81726494096404
C         2.08813752804504      -1.97358295039144      -1.13725918222581
C         2.02569394552490      -2.51094875258061       0.29685127561034
C        -0.14394239752590       1.81613185183403      -0.06995985156708
C        -2.10316354355381      -1.08237578430359       0.00160131862693
C        -0.23844438997552       3.06578502208499       0.80837497217540
C        -3.24112664185935      -1.64664390308944      -0.85475830470106
C        -0.63017925497302       4.30466965893808       0.00827788188434
C        -4.49899683558753      -1.88220161348413      -0.02563749602790
H         2.34570072063806       0.08263541085522      -0.48111969986208
H         1.25934902342184      -0.06195928763560      -1.90544513007754
H        -0.05544433550567      -2.53519276217307       0.96050836380403
H         0.99668073101708      -1.40139249257869       1.90959307597635
H        -0.54919640328479       0.39168463060770       1.51527359580004
H         1.17527730060101       0.77386201509342       1.29984955103162
H        -0.90048648282977      -0.31424721842671      -1.64207106250965
H        -0.62025508723538      -2.04918399669018      -1.21890052115454
H         1.41000489473938      -2.56174013841444      -1.77439162912264
H         3.09925175397461      -1.99975892233770      -1.56944404585426
H         2.94261146391174      -2.25230063311492       0.85106837017502
H         1.89072853813717      -3.60229287113812       0.30537291632894
H         0.60775236687840       1.98642067296359      -0.85978704827947
H        -1.11324058331683       1.65374350958527      -0.57023574331208
H        -1.96586365302146      -1.75814309664063       0.86152069652544
H        -2.38849071056200      -0.08209223019339       0.37528757637038
H         0.73297169889538       3.23688729324369       1.30665219242775
H        -0.97651018902161       2.89253199465396       1.61174703017346
H        -3.45451626617737      -0.95935019743629      -1.69458275760524
H        -2.91362991465892      -2.60185714570308      -1.29582703360003
H        -1.61415364472137       4.17205910758118      -0.46839651095358
H         0.10400625068342       4.51063037896333      -0.78649922200593
H        -0.68497291264717       5.19263452054035       0.65531140210777
H        -4.85201903444441      -0.95071537087762       0.44682776437852
H        -4.29067374011393      -2.61673682861467       0.76765453651128
H        -5.31376616619507      -2.27950824890011      -0.64867571360621
C        -1.11963032592021      -4.48176128072311      -0.42278897796107
O        -1.29147774252344      -4.07667662787129       0.75305308796809
O        -0.37110272441217      -4.04747846354222      -1.33648064758716
C        -2.03543540945362      -5.67694803909825      -0.86136124024909
F        -3.12921945018295      -5.19064721560201      -1.55112509776753
F        -2.52536809243350      -6.40501630219137       0.18082475633567
F        -1.40205398779934      -6.55180781317900      -1.69585725383320
