26
C8H14N2O2 optimized with ADF in AMS.
N         0.47158890896470       0.19381188534994       0.05418469241903
N         1.52014349586850       0.47387803783742       1.94416573037181
C         0.01587509546414      -0.46411978637501      -1.16836185484572
C         1.14721023362345      -0.44955248763641       1.03231862488747
C         0.56736767307837       1.56042783081536       0.27147537676148
C         1.23284881362906       1.73508205982467       1.44111513388220
C        -1.26293234171642      -1.26124681695835      -0.95668877772625
C         2.52190784882571       0.21604004838967       2.96503812099484
H        -0.13026492061012       0.32690149842795      -1.91767135173360
H         0.85377533589075      -1.09844431054288      -1.50021157170313
H         1.11015028323608      -1.51211725561474       1.22056259693842
H         0.16429731601769       2.27736868040004      -0.43196135927416
H         1.55394036996198       2.63519177179759       1.94727125269173
H        -1.10800387820312      -2.06906654452663      -0.22637843573940
H        -1.57889191992591      -1.72021092793317      -1.90474827003153
H        -2.07416722050272      -0.61310062487579      -0.59236949694011
H         2.44722437816234      -0.83049037668160       3.28277140627395
H         3.50275257507573       0.40218108236547       2.49382840960589
H         2.34577750617110       0.87385134767760       3.82561664501744
C         4.89296694690158      -0.76856574179216      -1.30255386800184
C         3.83226595393848      -0.39448218677461      -0.26221883811217
O         2.89427428451598      -1.26835488985069      -0.12246466737552
O         3.94152637616299       0.69798020978392       0.33943693337200
H         5.10066195110972      -1.84780597244569      -1.28145143677071
H         4.51040800273972      -0.52408789513919      -2.30607026780671
H         5.81384553582023      -0.19499213262270      -1.13422395565543
