47
C13H28BF4N optimized with ADF in AMS.
N        -0.37684697851353      -0.20216136041827       0.31585292894004
C        -1.37438421858335      -0.85515569848451      -0.63049541796621
C         0.20411248134223      -1.27136306606195       1.23441573811215
C         0.72811845192538       0.36008366205844      -0.56620262635894
C        -1.01230703008449       0.87504742433826       1.16714535117154
C        -2.46340270051521      -1.62943450522679       0.09064983379269
C        -0.86182246101310      -2.07795639403049       1.96009194918607
C        -1.84559885789380      -2.71041056191668       0.97773123608199
C         1.90866281557276       0.98429887790076       0.15065465838520
C        -1.56415770197963       2.07017424931610       0.41654101377473
C         2.90156001491307       1.47888063952835      -0.91047546451537
C         4.19324500434846       2.07368559011980      -0.32613018175993
C         5.35361033596449       1.08131087949659      -0.19383209656249
C         5.09815778531535      -0.09854940757316       0.74228099182188
H        -0.76561118266390      -1.54143766655387      -1.24230331130650
H        -1.77245790711113      -0.05788195063644      -1.27389717979959
H         0.86472924984018      -0.74865222124475       1.93934553307394
H         0.82185182706305      -1.91654812758799       0.59224059920594
H         0.24182067018163       1.08480933411668      -1.23713864205938
H         1.07855727353888      -0.47837247069475      -1.18427000282947
H        -1.80629968102245       0.38643874176328       1.74472179903724
H        -0.23242676570451       1.18941192679500       1.87557862531192
H        -3.10478217696301      -2.08015413666285      -0.68508181901160
H        -3.11472099333756      -0.95850377520283       0.68015341075904
H        -1.39616470944649      -1.46456455757708       2.70762042244832
H        -0.32541152120980      -2.85709964282748       2.52781927349341
H        -2.62947455258805      -3.26645533493286       1.51685800731491
H        -1.29951527579203      -3.42544545364011       0.33743460209888
H         1.60803531513325       1.83418501254460       0.79029232141462
H         2.40499805621439       0.23398605205554       0.78162920735628
H        -0.78168628588350       2.63973355773657      -0.10310629955086
H        -2.34652831104494       1.79519760321675      -0.30472240667434
H        -2.02560270937888       2.74240178843972       1.15653842196654
H         2.39245620768184       2.23758858866573      -1.53235370348974
H         3.14332921813868       0.63546028376202      -1.58094706284177
H         3.97961024271835       2.52668874199420       0.66143575020717
H         4.52723152870031       2.90186088511205      -0.97527703891059
H         5.59830721162382       0.69505294794506      -1.20046904709967
H         6.24333894450980       1.63912544369270       0.14974791448485
H         4.31148984224218      -0.76642737358215       0.36065404470418
H         6.00917745462094      -0.70859347390949       0.84969253570769
H         4.81186443057081       0.25046333402601       1.74975660580973
B         2.14774497049918      -2.73669886048348      -1.60564649201230
F         0.73379362833497      -3.01664359406158      -1.44800136971468
F         2.64423172133826      -2.36057345989093      -0.30756675267347
F         2.27172137271468      -1.60780860532393      -2.47145817409226
F         2.82120142228242      -3.84768809019981      -2.09982426413181
