23
C5H9F6N2P optimized with DFTB in AMS.
N         1.18819578506840       0.15889811089557      -0.13204199716251
N        -0.95744425221307       0.16642722461008       0.01232809004619
C         0.13486220847227      -0.54641161178481       0.27144036118424
C         0.76234988740591       1.36679486039895      -0.61615632425483
C        -0.59179352338531       1.37169178551001      -0.52496180833430
C         2.57199066101754      -0.18495326539564       0.14595399253816
C        -2.29521374340212      -0.16440466188096       0.47256191069661
H         0.16217707382286      -1.52279621670983       0.72157010405010
H         1.45030137560209       2.11621284878806      -0.96516007049589
H        -1.31511211394315       2.12581245019497      -0.77944725263487
H         2.66066890453421      -1.26577409454178       0.23884415507162
H         3.20324672310427       0.17745073195144      -0.66361069857012
H         2.85569438972637       0.29437509480262       1.08524599564651
H        -2.47197883570282       0.37571727605905       1.40485921038873
H        -3.02213988018827       0.13881499845346      -0.27932529456379
H        -2.35770300116981      -1.23679094673500       0.64702948095529
P         0.36286701350858       1.27414579035591       3.31998004771641
F         1.59789794313266       0.83265603791401       4.28753637210745
F        -0.73782376015725       0.81401222665089       4.43060050239238
F         0.38635216252608       2.79732773021663       3.88483164980085
F        -0.87731693373058       1.67603275507458       2.26663064392275
F         1.45475641101689       1.69064511320322       2.12065303847075
F         0.33365949595425      -0.28757217763145       2.67116522532828
