31
C9H20ClN optimized with ForceField in AMS.
N         0.25568680979202      -0.11767958286012      -0.17774339193058
C        -0.63987917990705       0.68892665743451      -1.06851309624945
C        -0.48599596438264      -1.34176897956245       0.26934248352678
C        -1.98880662544768       1.06084992288073      -0.43141553669521
C        -1.85092143938166      -1.04672767613959       0.92389118310961
C         0.70348511452414       0.66636236583630       1.02546005887657
C         1.42392020500272      -0.54710172603189      -1.02049873137686
C        -2.73085041542648      -0.19502240734194       0.01404459261142
C         1.55705693641913       1.91360552176939       0.73147298515237
C         2.52414016269672      -1.33894540382011      -0.28859833437843
H        -0.87130066602930       0.11457216631649      -1.99626494956263
H        -0.14032227557745       1.61708542681896      -1.41652606235492
H         0.10844801706694      -1.91904714391032       1.01003588369611
H        -0.67126360712234      -2.02137735217466      -0.59450073460456
H        -2.60819763130950       1.59293734858678      -1.18507448052636
H        -1.85384188391671       1.75813203534557       0.42089429453288
H        -1.72071396899565      -0.54702140620030       1.90619086619012
H        -2.37011386569470      -2.00937898678103       1.12179448201391
H        -0.16090766101635       1.01292789981750       1.62392224798852
H         1.27802807738176       0.01632769519911       1.72072613421699
H         1.07401619540917      -1.18511887640983      -1.86467435945919
H         1.90346918842987       0.33085302852544      -1.50673913068887
H        -3.65792058809227       0.09277396264030       0.55494215259964
H        -3.02433112859882      -0.79022361131505      -0.87870151609664
H         1.84509834800627       2.38376322021000       1.69548915998372
H         2.49687395068984       1.66062160080254       0.20288258196953
H         0.98895550650280       2.67263075736090       0.15813138458777
H         3.30562778879510      -1.62657822254940      -1.02324983061447
H         3.02228984143208      -0.72855992349896       0.49066992796841
H         2.13224578854197      -2.27521928495236       0.15526046879976
Cl        0.34570735030807       0.91422010150351      -4.79201839798594
