34
C8H18F6NP optimized with ADF in AMS.
N         0.64490337337526      -0.12359729935999       0.07955204787855
C        -0.20876032221947       0.32757329196541      -1.10013801664751
C         0.19274766696776      -1.50763342646805       0.52081226958731
C        -1.69642020858592       0.30670638437360      -0.79596363881466
C        -1.29653408515787      -1.56610872245999       0.82790056500635
C         2.09094930391435      -0.16877802836533      -0.41685857073827
C        -2.14190721722559      -1.08670588021439      -0.35198780255831
C         0.53931097522406       0.84963295019233       1.20493413755787
C         3.06890154367332      -0.87073400189946       0.50175346341857
H         0.02737690524459      -0.37221374411130      -1.91553388679829
H         0.15262972047745       1.33148259412279      -1.37265850371606
H         0.79375916836881      -1.76740650248919       1.40353326982964
H         0.45092063674330      -2.18097860702180      -0.31004513612389
H        -2.21189585667669       0.59631859809554      -1.72648184584499
H        -1.96525980983751       1.06845207981017      -0.04241822982956
H        -1.53705418622171      -0.99162875532633       1.74050118253831
H        -1.52396092619243      -2.62028944503252       1.05893981438705
H         2.05926602467219      -0.67973253446343      -1.38972098163502
H         2.36711053796984       0.88657005710996      -0.57388050046169
H        -3.20911955436415      -1.08012860482708      -0.07959107903339
H        -2.01180099104536      -1.78742783235280      -1.19226343407201
H        -0.49092517248635       0.89170777571114       1.56876734186061
H         1.20129220670884       0.52898526086981       2.01783884654029
H         0.84353598206608       1.83981082777132       0.84171432491061
H         4.07444424172237      -0.70746739727205       0.08602899278233
H         3.07391939677562      -0.48235283234419       1.53068600269394
H         2.90178460129436      -1.95561063371652       0.50831505479796
P         1.20001723567057      -3.04495480799235      -3.20984635537606
F        -0.24179373073484      -2.68911804936958      -2.40961272130266
F         0.91079573086731      -4.64180093891882      -3.01220723660961
F         0.41025700398100      -3.01704822459130      -4.63971915534390
F         2.63477357500679      -3.32993854796691      -3.93653794494234
F         1.46962956799791      -1.38382944363250      -3.32764341135115
F         1.96968209122611      -3.00413505722615      -1.70994910869004
