48
C14H31NO2 optimized with DFTB in AMS.
N         0.23398952263967      -0.04863087594192       0.16367232352736
C        -0.61832770267199       0.61598341739335       1.21461346486991
C        -0.58026158635867      -0.99405404508643      -0.68022887517237
C         1.29386324114561      -0.84978728812102       0.87312729554851
C         0.82827891718707       0.99878661301925      -0.73067583741910
C        -1.43806030836549      -0.33696361673706       2.08537465169290
C        -1.81496795762581      -0.39834661818061      -1.35141984529762
C         2.35639340685513      -1.48982446209353      -0.01659118516041
C         1.77741668259173       1.98298747254857      -0.04759054045277
C        -2.19224596992887       0.47298176104658       3.13765129413528
C        -2.61735376859737      -1.54949842190234      -1.96238668563199
C         3.09647695058296      -2.53696711713083       0.81841004543111
C         2.30973389454637       2.97327708384662      -1.08351649480863
H        -1.27768987197041       1.32012371634459       0.69980218533000
H         0.05998123715531       1.19125771840484       1.85041653598375
H        -0.89924879358218      -1.81681827723093      -0.02269991573372
H         0.08570381084076      -1.39343782990184      -1.44713389189969
H         0.75691075071029      -1.65536329877787       1.39625621199469
H         1.76322409031779      -0.19581073236283       1.61134692192619
H        -0.00402922793110       1.54952011950879      -1.17599709985805
H         1.35714137847705       0.47260608617088      -1.52946750788706
H        -2.15118056304862      -0.90045859632402       1.48143926687883
H        -0.78845289588235      -1.06157113862892       2.58024708613428
H        -2.44480190897233       0.11976433316674      -0.62469063843945
H        -1.53737038207674       0.31744038722515      -2.13260833611843
H         1.89855339866570      -1.99012288023775      -0.87273985095763
H         3.06207586493703      -0.74374333895088      -0.39633046013490
H         1.25748155552988       2.53487668727134       0.73934721412664
H         2.61898449325161       1.45454088825980       0.40587896403252
H        -2.78023026488595      -0.20226257175152       3.75785722119707
H        -1.49866841278521       1.01939399092360       3.77921400892526
H        -2.86778631809640       1.18848406325340       2.66559587329566
H        -3.53971533288487      -1.16830755354518      -2.39994128350780
H        -2.03828547348175      -2.04774654087467      -2.74071440018872
H        -2.86295540688855      -2.27822209333949      -1.18876270344607
H         3.83806351008570      -3.04673178767691       0.20402683171743
H         3.60208374052381      -2.06679755414651       1.66256906628901
H         2.38427755992290      -3.26987495092300       1.20061749082752
H         2.98964638152130       3.67633805311666      -0.60361103834216
H         2.85046515603462       2.44905593244567      -1.87217903267483
H         1.49051972121723       3.53378841420252      -1.53517215658356
C        -1.44821464374705      -5.18934097017907       1.89326733940755
C        -1.12345718961460      -3.72267467588099       1.52817319277835
O        -0.02989746375271      -3.27754678234463       1.94197991548980
O        -1.97160354531682      -3.10416295298959       0.85012137103591
H        -0.63813877066911      -5.83068857093334       1.54833256789369
H        -1.52007904901505      -5.27615063712132       2.97652294701136
H        -2.38607043708952      -5.49696783013327       1.43522916073433
