35
C9H18F3NO3S optimized with DFTB in AMS.
N         0.28647657631331       0.72055696419064      -0.46117820159969
C         1.03001053568964       0.48984593043860      -1.75273358644608
C         0.31186012773655       2.21130073445509      -0.28847055334343
C         2.01159828775626       1.65090505672204      -1.91377333086580
C         1.67985631376380       2.64406498322638      -0.79669398302147
C         1.00844476763618       0.08482265741249       0.70191169998300
C        -1.11402796345192       0.21324303584358      -0.59637646407243
C         0.98150946277327      -1.43410621348593       0.71740255911697
C        -1.97452774735194       0.43778870536582       0.63852291112465
H         0.29695678704044       0.47535720317808      -2.56208823039455
H         1.53638467366529      -0.47295224407958      -1.70585734588883
H         0.13589233709993       2.46462687888131       0.75679593021169
H        -0.48769623968691       2.63122699523684      -0.90487406317475
H         1.88707830075159       2.10636454044804      -2.89827798123165
H         3.03974822570972       1.29910695659567      -1.82058244118812
H         2.42599863994142       2.58054084447663      -0.00239380557979
H         1.64343188073124       3.67239788408079      -1.15894111386077
H         2.04036328484165       0.43422586850401       0.64805046814464
H         0.55354420859506       0.47898133521232       1.61363761748892
H        -1.55855384748258       0.72906409330983      -1.45178550323942
H        -1.05094983275236      -0.85175394890024      -0.83003406652686
H         1.65752312537413      -1.75527992006221       1.50975614135051
H        -0.01226210905101      -1.82862150177686       0.92724732888205
H         1.34919836280936      -1.85339722811270      -0.21630202349588
H        -2.98287678335966       0.09213208054874       0.41193049697012
H        -1.60644203186248      -0.12329614457743       1.49501090792960
H        -2.02398840478607       1.49335348924491       0.90083110121018
S         4.41103195366466      -0.38028478250734      -0.00515806404312
O         3.99298868469660       0.96160948935509       0.40017325998761
O         3.47460422117736      -1.00862638909237      -0.93594701652680
O         4.86165894432090      -1.22794482210512       1.06787958579432
C         5.88711192672920      -0.04686232690163      -1.06903403326101
F         6.84506033333955       0.57732054533224      -0.39734376888455
F         5.51510610280728       0.73755411188858      -2.08580585318226
F         6.38765480022054      -1.16603259214631      -1.57527345196699
