38
C12H18F3NO3S optimized with ADF in AMS.
N         0.69152797066917       0.97267249964605      -0.76392985502553
C        -2.27557320214296      -1.45735730101514      -0.78981608140590
C        -1.43440940403361      -0.26494963525172      -0.33433050567407
C        -3.54309868261446      -1.64424238504059       0.04848678445250
C        -0.20244141241759      -0.12204613994696      -1.21772041940710
C        -4.59008151637344      -0.55106791649875      -0.16287665349338
C        -5.84636707425152      -0.79138527269976       0.66976617512454
C         1.40781003278922       0.79831052105270       0.37315097363469
C         0.71201581656052       2.14860643294596      -1.42117041070873
C         2.20770401346360       1.80592226199093       0.85967484075443
C         1.51597592218130       3.18672629695299      -0.97721177487330
C         2.26819519557624       3.02086104279096       0.17315636868735
H        -1.66159594161713      -2.37653038175796      -0.74595262471897
H        -2.56380289927244      -1.32028831028576      -1.84907974584761
H        -2.00397317045539       0.67487340588005      -0.37044345301768
H        -1.12554960647204      -0.41101253088321       0.71612876084864
H        -3.98794777814448      -2.62662019051597      -0.19626072190918
H        -3.26787170282662      -1.68638075092821       1.11965458444328
H        -0.48817935635163       0.11375749869439      -2.25271330271881
H         0.40584480222127      -1.04110407442356      -1.22940547396625
H        -4.17178228613158       0.43586271490962       0.09185624762837
H        -4.85616372762662      -0.51781146089247      -1.23691711853195
H        -5.60485502280747      -0.79276544283300       1.74508074310926
H        -6.59421179846615      -0.00217345614280       0.49979956883723
H        -6.31026797324797      -1.76141541723907       0.42602265304598
H         1.29524665827907      -0.16629078866568       0.86342054457057
H         0.09468519634856       2.21961099691198      -2.31094925062387
H         2.76418390181350       1.64563288153309       1.78188264949895
H         1.49801918820021       4.12883325297883      -1.52254734886448
H         2.88358695992146       3.83735159963388       0.55185520694274
S        -2.32914218254955       3.48883738634835       0.37529213706880
O        -2.66600122948369       4.90755481249143       0.28813885014798
O        -1.47826627188828       2.97705974035978      -0.73865477617648
O        -3.38637107182690       2.55064037417995       0.77386244375647
C        -1.17002764147084       3.42932757537246       1.85556634345787
F        -1.79525927612092       3.83653926436923       2.98368937094325
F        -0.07043417509377       4.22616529958578       1.68012634453289
F        -0.69973729593706       2.15710843409220       2.08562860057748
