41
C11H22F3NO3S optimized with DFTB in AMS.
N         0.57173277216544      -0.15636747372360      -0.17802004792826
C        -0.74314538646849       0.33199740778000      -0.71079624244985
C         0.56628578091868      -1.65993260520647      -0.21419111961210
C         1.64049424162055       0.33513464451320      -1.12568166215155
C        -1.94525865793748      -0.23296453323580       0.04038936678095
C        -0.58541032165880      -2.26527612649347       0.57204844763975
C         0.81286077027876       0.32604386409681       1.22650870721267
C        -1.92701771118163      -1.76161704460290       0.04499075388275
C         3.08771080489178       0.05478624474249      -0.69289443663734
C         1.05271767831411       1.82184258008930       1.35069147326195
C         3.86674485353341      -0.67947615122630      -1.78204601212234
H        -0.78871029573181       0.02793553716982      -1.76031910684239
H        -0.74212899423691       1.42291386527711      -0.66553103741367
H         1.51643912108981      -2.00848408392618       0.18511446528419
H         0.49535353348529      -1.95089532820921      -1.26570510866898
H         1.47684295944020       1.40804556224887      -1.25104179153594
H         1.43052945402885      -0.14683491114324      -2.08436717187981
H        -2.84322375324947       0.12787162588572      -0.46848203614646
H        -1.97229407353507       0.14777078284422       1.06463693094846
H        -0.48375517276806      -2.04502495049301       1.63721149780705
H        -0.52128368982597      -3.34954048850147       0.45324357506931
H        -0.05834631009183       0.04698240922940       1.81922341761292
H         1.67150561030083      -0.22669532656429       1.61288075574370
H        -2.74063683623807      -2.13460778069707       0.67116210823459
H        -2.08402552145016      -2.13063609041644      -0.97377307907721
H         3.57766820152322       1.00703007522294      -0.47029079881515
H         3.12267265653300      -0.54794997479054       0.21388882376789
H         1.12730342102420       2.05042213427807       2.41371914028889
H         1.98442158172692       2.12294590581953       0.87589434046612
H         0.23483735371940       2.40814850132173       0.93327931300970
H         4.89008531853449      -0.82919699602553      -1.43986844010773
H         3.42502401276225      -1.65781323908932      -1.96760845050021
H         3.88276022434475      -0.10704171082672      -2.71036159450400
S         3.42637906774442      -3.05176751693811       1.46383878780606
O         3.26293355321498      -3.12045098539594       0.01607606851523
O         3.16858803262883      -4.27454437631317       2.17692398332890
O         2.80466851020226      -1.85742483654148       2.04397999217623
C         5.23389698879436      -2.70680889628437       1.66927556299011
F         5.55999994761499      -1.63360513902022       0.93974953897928
F         5.97907459099928      -3.72306424688602       1.25762959747261
F         5.53891088323864      -2.44590166206839       2.93457389241368
