55
C15H29F2N3O4S2 optimized with DFTB in AMS.
N         2.61694323565733       1.09766055152343      -0.72029041058580
N         2.39330570056257      -1.04017151292674      -0.86865017406467
C         1.23608270764474       3.06194280077112      -0.18730253799060
C         2.63882453671077       2.44531323344682      -0.16041477710479
C         0.71037189259958      -2.57362467027242       0.05078085005238
C         2.13274359922560      -2.42908773815774      -0.50115596288895
C         0.23483192491013       2.27373499307802       0.66011602229773
C        -0.34317851273837      -2.22682615362755      -1.00439549546934
C        -1.17785060280734       2.84663675345460       0.51080386293296
C        -1.74611706734040      -2.14596142468446      -0.39794793002926
C         2.45334376253377      -0.01935626359952      -0.01069124807078
C         2.62921651176826       0.78905662052138      -2.05131780401917
C         2.49262463842436      -0.56030942077491      -2.14376390348089
C        -2.21209662619265       1.94723821564160       1.19271403677626
C        -2.75559946187152      -1.65749345355583      -1.44185512202812
C        -3.63188665018028       2.45690382391878       0.95329797146407
C        -4.15692700035929      -1.53353164137691      -0.84792541855885
H         1.32043332227358       4.08689287962264       0.18490485172579
H         0.89060360128400       3.10298399915553      -1.22221799128909
H         0.60026910917049      -1.91722142085418       0.92018693224271
H         0.58653195071503      -3.60613905297854       0.39042074172389
H         3.32790586986909       3.04378146455900      -0.76146992482527
H         3.02016797981064       2.37701977660717       0.86256397061143
H         2.87042686939479      -2.72944306083026       0.24902282666362
H         2.26638702347586      -3.03640838903296      -1.39926238859932
H         0.54281510426952       2.28915806239179       1.71225095186628
H         0.22790482791578       1.23107952029404       0.32649964856410
H        -0.32212129275466      -2.97424582547273      -1.80305716424127
H        -0.09546395534212      -1.26079118612666      -1.44870641890888
H        -1.21614221036697       3.85249223867082       0.94266833281936
H        -1.41609976514564       2.92990930313411      -0.55340570145111
H        -1.73363283776549      -1.44879127432554       0.44812676701915
H        -2.04606328158299      -3.12856875997759      -0.01662146549670
H         2.41398018282226      -0.08720536977336       1.06239585370356
H         2.69924513455137       1.53730247578322      -2.82129234208715
H         2.43874615456494      -1.20098015833373      -3.00538328410346
H        -2.12300485502547       0.93050569294488       0.79479832554970
H        -2.01158337376520       1.90309057165369       2.26932912850264
H        -2.77496292348640      -2.35646790160835      -2.28416935099041
H        -2.43516270314525      -0.68314663153466      -1.82235859592305
H        -3.75230964394199       3.46202204631106       1.36014103859037
H        -3.84754972823792       2.48627165734413      -0.11520351287974
H        -4.35326769989047       1.79705754648665       1.43621177240916
H        -4.85321905728631      -1.17958150595979      -1.60826123055695
H        -4.15936641013712      -0.82388636713995      -0.01891481978158
H        -4.50617516456345      -2.49924507958574      -0.47848634729155
N        -0.85602344882869       0.86315656412142      -4.54302057737681
S        -0.67579309064740       1.63372325422032      -3.17752562120235
S         0.30332857713750      -0.14391065466533      -4.94981236184198
F         0.58897963826159       2.65329120267573      -3.42950510638628
F         0.17405303312126      -1.36264479519389      -3.85208248524465
O        -1.78968427825405       2.49980477993924      -2.98674703416884
O        -0.21819718163413       0.86172708541818      -2.04999298905304
O         1.64913869977362       0.31410169691607      -4.74817278140888
O        -0.04017683615675      -0.75166067253613      -6.18671684681558
