40
C12H26ClN optimized with ForceField in AMS.
N        -1.89557532728799       0.13628365582840      -0.08481892694666
C        -2.10838378697155      -1.08617150653290      -0.91888458014277
C        -3.02018302160852       0.12950149519619       0.90184537902921
C        -0.59170525710488       0.04608844390099       0.65014801222760
C        -3.48701398063592      -1.63586292341660      -0.60985408231057
C        -3.72223477743926      -1.21124973109439       0.81214998130940
C        -1.97856793053502       1.35471787067712      -0.95426935829648
C         0.66467911056895       0.03802262466352      -0.25387962358746
C        -1.75141567289783       2.68491018347282      -0.21387127771374
C         1.93046430822013      -0.16926246316063       0.58793160557418
C         3.18801642935261      -0.20431477957640      -0.28962559317024
C         4.44867682058069      -0.35582617443088       0.57031591724312
C         5.70646078836159      -0.40032288062053      -0.29226503899926
H        -1.38161101978629      -1.89417045173047      -0.67279865945655
H        -2.01420348043514      -0.89601519850863      -2.01240368613894
H        -3.78553004456116       0.90690284317030       0.67461324888101
H        -2.68880691613253       0.31100185745453       1.94994004804314
H        -0.58062586956105      -0.87930638466051       1.27238802953964
H        -0.49478962062621       0.88832908945776       1.37007247391919
H        -3.52868806203471      -2.74112158549104      -0.71962727904998
H        -4.24161048994042      -1.16157443879307      -1.27602802102791
H        -4.80662290125654      -1.12966101770667       1.04247763947620
H        -3.24265083483179      -1.93575975111191       1.50705305544035
H        -1.24721645761566       1.29662328663502      -1.78975569770257
H        -2.97915870140257       1.40353606220517      -1.44264984564939
H         0.59775756173625      -0.77208069290001      -1.01010599426200
H         0.75931279884083       1.00766948390729      -0.78533502866899
H        -1.98548753421665       3.52651247960030      -0.89939411088962
H        -2.40441411369309       2.77632526975971       0.67795195134654
H        -0.69191971144881       2.79398749810603       0.09488781511687
H         1.84972729572878      -1.12828376207263       1.14606955808144
H         2.01797171813371       0.66138188518494       1.32317324974007
H         3.25572309801540       0.73755397016134      -0.87767921531398
H         3.11810407182657      -1.06029300385599      -0.99695212672303
H         4.52690530552932       0.50238279747380       1.27298866202328
H         4.38729082903746      -1.29353714489005       1.16460300803349
H         5.80182285854128       0.53464325581697      -0.88445708145241
H         6.59971646501198      -0.49940402508915       0.36019519174493
H         5.67124727692073      -1.27117595824266      -0.98087881074355
Cl        0.07526711381729       0.23143110241290       4.37887635247643
