34
C10H22ClN optimized with DFTB in AMS.
N        -0.44000119542340       0.31985732197859       0.15044277903763
C        -1.39577496633120       1.27453033304284      -0.51500648485310
C        -0.72865882034135      -1.08826340268246      -0.28800532771730
C         0.93603419643224       0.72000682105793      -0.32049928896775
C        -2.85686375535355       0.89916636330844      -0.31905475196079
C        -2.18522978029277      -1.48440937303245      -0.09041958389623
C        -3.10677661959241      -0.51782684432847      -0.82983913153642
C        -0.52988356967282       0.44703594348979       1.62674501238051
C         2.08502271743238      -0.10993160932270       0.24095247028221
C         3.39697582299870       0.37172335848319      -0.39420533576588
C         4.58683829850357      -0.43138880904158       0.12476487676322
H        -1.15574719251185       1.24369747961973      -1.58440649499540
H        -1.18661720089076       2.26988726898702      -0.11620759998523
H        -0.07378594984232      -1.75169040818269       0.27955733632733
H        -0.47626995730175      -1.13125085607446      -1.35381953183056
H         1.06632040663452       1.77158462979707      -0.05012234081325
H         0.91421945232991       0.63182220575656      -1.41329513644408
H        -3.45228452145875       1.61334284420665      -0.89354807143596
H        -3.15571073990732       0.98489331976661       0.73088791260645
H        -2.44354121871549      -1.51990873472493       0.97320299611508
H        -2.30130840056291      -2.49275228025168      -0.49600645287579
H        -4.15034063226895      -0.79662907983982      -0.66696483749470
H        -2.89536196397178      -0.56126726969848      -1.90214658526939
H        -1.55346472375288       0.27227331216788       1.94804498232005
H         0.12282720121677      -0.28761537064253       2.09287233124790
H        -0.22312380196000       1.45167101848544       1.91319702992972
H         1.94668145681910      -1.16791593616971       0.00441766530628
H         2.15043095375162      -0.00918404054390       1.32886047107610
H         3.54233955381321       1.43274184708885      -0.16567647939537
H         3.32877369717886       0.26719727927051      -1.48096035644957
H         4.47259181468137      -1.48726352056177      -0.12306495228635
H         4.67190734472914      -0.33566560874755       1.20832110570937
H         5.50688842097153      -0.06535913491626      -0.33007330161940
Cl       -0.26592119364059       0.03343055535433      -3.26639121400932
