34
C8H11F6N3O4S2 optimized with DFTB in AMS.
N        -0.56416681527121      -0.63542912855561       0.09318898486188
N         1.54518201881185      -1.05078533131022       0.01654310613193
C        -2.00602423047537      -0.84268177221792       0.22116077535292
C         0.33692789941270      -1.60361670935961      -0.04518609487235
C         0.08200397052311       0.56184688761808       0.24635107529593
C         1.41400981095602       0.29945363310336       0.19522977731195
C        -2.44848192238855      -0.53844608566644       1.64792270442487
C         2.80145579624634      -1.78328334720653       0.01235038194317
H        -2.51024119250471      -0.19132074864955      -0.49889633428704
H        -2.20727471277501      -1.88731980545943      -0.02557565731830
H         0.12366613858934      -2.64974792838100      -0.17965068192701
H        -0.44814000088228       1.48830966153646       0.37964409412567
H         2.26547653164391       0.95025070541362       0.28817845970575
H        -1.90464063894325      -1.16996906285447       2.35055593729522
H        -3.51371032552101      -0.74557631204965       1.73722291336717
H        -2.26705468202364       0.50675793379693       1.89504111555166
H         2.58843616852226      -2.83314748335734       0.20458979926192
H         3.29370479485958      -1.66506082225934      -0.95355089076404
H         3.43557031671730      -1.38990233747978       0.80550776871516
N        -0.50619510455500      -2.55786178261591       3.43466919918812
S         0.62081008734810      -2.33067186840983       4.56710189854165
S        -0.19227873830149      -3.67187183411463       2.33608056005816
C         1.90172930473144      -1.20828014018740       3.77184520877037
C        -0.34013551995234      -5.38684641721733       3.09812927793727
O         0.03628213492354      -1.49344009839421       5.57475086480313
O         1.34052898338793      -3.51294499780454       4.95595613205412
O         1.14838145283945      -3.62836031285170       1.76526846092995
O        -1.28352386077550      -3.60646137844198       1.37851218633240
F         2.45378013767733      -0.42468867033067       4.68030219852786
F         1.30422830805398      -0.42686627864870       2.86000204768035
F         2.86324104145243      -1.87887131298323       3.15215820841033
F        -0.94543116026536      -6.17696579329086       2.22496006609565
F        -1.06345586221159      -5.33127473480241       4.19999765314252
F         0.84908642564968      -5.87971262236818       3.36800486025161
