24
C6H9F3N2O3S optimized with ADF in AMS.
N         1.32812106578785       0.09729861756882      -0.22588029931842
N        -0.38873678511247      -0.86246871316039       0.68810106253715
C         0.73263833165418      -1.08203397591834      -0.00838292648972
C         0.58705647721651       1.08882280856133       0.38257835233611
C        -0.49217183361350       0.48493678850710       0.95514419379156
C         2.66643528304604       0.25733548448715      -0.78328713498687
C        -1.23698571832786      -1.90307261381749       1.25717956933133
H         1.14079337577555      -2.05293595179534      -0.25469340867278
H         0.90525819466180       2.12308428271821       0.37978708513317
H        -1.29798566908780       0.88750248853156       1.55455117914070
H         2.81940997102170      -0.49540351124700      -1.56475253700709
H         2.74679961356904       1.25658669739631      -1.22626265097240
H         3.38443933299816       0.12043395452440       0.03891775388226
H        -1.11854716939600      -1.86451253784404       2.34861941428343
H        -2.27567099426102      -1.73837702753180       0.94349557740229
H        -0.87899937615327      -2.87397865562276       0.90051323574275
S         2.16353502671719      -1.59196656870507       2.78830837307403
O         3.07910925740314      -0.56082022467663       2.25968583882072
O         1.93967857282079      -2.74040920095252       1.87466448092348
O         0.93863586961310      -1.07807363594453       3.43122360140400
C         3.12380603623649      -2.36322448981251       4.19954498885211
F         3.41359950606750      -1.44140612475366       5.15423112028651
F         4.29488710390559      -2.89337159226764       3.75785614658471
F         2.40514458055728      -3.36029765964514       4.78219370442097
