42
C10H22F2N2O4S2 optimized with ADF in AMS.
N        -0.79528562490363      -0.13858379725600      -0.10325795781283
C        -1.13507216386680      -0.62928157857609      -1.50181480678022
C        -1.60038027148986      -1.09096784065625       0.76644757568377
C         0.67954491348982      -0.24182724249650       0.22124113828698
C        -2.62596305729045      -0.97309011559424      -1.44590875911243
C        -2.94203434746226      -1.22475370015817       0.05286321024132
C        -1.27698580846233       1.26282874663663       0.08327609840017
C         1.59748509087064       0.46122845245164      -0.76047823919561
C         3.05459331088211       0.26887373525318      -0.33385180067782
C         4.03276386068192       0.93317658203307      -1.29934932554064
C         5.48655247584322       0.68714042611894      -0.90637546316150
H        -0.51771701578264      -1.52541948046971      -1.67187408517063
H        -0.86970403635936       0.14917221623995      -2.22808541381670
H        -1.64343830832493      -0.68637988825564       1.78733197716005
H        -1.04933190722527      -2.04310078386476       0.76724281396661
H         0.90902510624556      -1.31393754157370       0.25677227536029
H         0.79543308827618       0.16180022224847       1.24050839804502
H        -2.80272433101747      -1.86769698167000      -2.05896751234584
H        -3.24305223252454      -0.15630458095540      -1.84924529568520
H        -3.67572876670122      -0.49896169486162       0.43625862948220
H        -3.34711609390548      -2.23130951878033       0.21904537317713
H        -0.73982065221945       1.92007149170903      -0.60925586086989
H        -2.35154455262129       1.30622196445839      -0.12629297520862
H        -1.08311611317444       1.56746845333389       1.11974022708322
H         1.46625624734469       0.02813026048300      -1.76586006588891
H         1.37480801494476       1.54094966984044      -0.82192605482282
H         3.26486759219303      -0.81241461631993      -0.28026029397720
H         3.20236566481271       0.67992294552944       0.68246593639705
H         3.83148947975599       2.02025882970364      -1.34082227379880
H         3.85269870975632       0.54005958517514      -2.31638522436177
H         5.69292286130568       1.07646529676185       0.10341590793725
H         6.18168493963852       1.17427840989273      -1.60615554094106
H         5.70787941408288      -0.39174981672605      -0.90186916955661
N         0.45077270469578      -3.58418092789408      -1.61080664818544
S        -0.88619246140804      -4.43221495087507      -1.88580357410598
S         1.39723894989349      -3.85414689982106      -0.34207491982657
F        -1.84887982274512      -4.07062064030259      -0.55182669085058
F         1.83070567638927      -5.42522878883386      -0.44767722240548
O        -1.58237802037018      -3.76759738102773      -2.97438610713737
O        -0.75756222116736      -5.87040020489787      -1.83402248178057
O         0.71354520030641      -3.74399367212161       0.94168312294258
O         2.62015147891317      -3.09870063888116      -0.55005643034654
