43
C13H28ClN optimized with DFTB in AMS.
N        -1.25664562357486       0.01912424411383      -0.19295878723984
C        -2.42171458957160       0.37188247222938      -1.06954518920419
C        -1.12337707825432      -1.47859035694344      -0.13644387039568
C        -0.03081010797101       0.58661347859057      -0.86275869742353
C        -1.42422806126665       0.56070310531784       1.20262084174988
C        -3.72877679940239      -0.27908735208343      -0.62998015258940
C        -2.39995145691248      -2.16904706731295       0.31879797034194
C        -3.58352505749081      -1.79894285664080      -0.57171050277233
C         1.28590201354077       0.33719408946862      -0.13255247906579
C        -1.36641465675098       2.07498042746632       1.31323490436957
C         2.42133353709113       1.04645532727770      -0.87893110393989
C         3.76123072077431       0.88675240458534      -0.15020232576919
C         4.31012813789887      -0.54191520812148      -0.22117082574513
C         5.63938330395162      -0.65787973992233       0.52394711582731
H        -2.16984758990406       0.03744816667923      -2.07998855437361
H        -2.51791815793232       1.45930797762555      -1.07871034416396
H        -0.31717215208214      -1.70557056344103       0.57098506034704
H        -0.84815003557388      -1.81187091114845      -1.14074538053974
H        -0.20274751997441       1.65930976534475      -0.98386024769574
H         0.01139404051087       0.13818473035513      -1.85974859686145
H        -2.38747806647955       0.20666947163106       1.57062699261411
H        -0.63738321457280       0.09896426981535       1.81334557472117
H        -4.49248952010758      -0.00257754606780      -1.36180413714916
H        -4.04607627633995       0.10839667089473       0.34123219871315
H        -2.61605060138380      -1.92106100890421       1.36054223424634
H        -2.21931726666760      -3.24546098135073       0.26805200774940
H        -4.50133119280334      -2.24115961384780      -0.17793033758605
H        -3.42302117465804      -2.18917145180996      -1.58213404906025
H         1.23918750599027       0.71169551575687       0.89048860824784
H         1.48848454753884      -0.73301236126985      -0.08165482524515
H        -0.37685553740488       2.46271404093528       1.07971604128632
H        -2.10119998886973       2.56814158009988       0.67721485790274
H        -1.58910133018260       2.32807357454450       2.34954945042959
H         2.18728913252320       2.11411816325252      -0.95616901388694
H         2.50213806659022       0.64866082557340      -1.89673690169540
H         3.63957327127037       1.18194095282978       0.89679589812455
H         4.48467344285074       1.57099001310030      -0.60656723578377
H         3.59424397839627      -1.23993393025132       0.22175630424923
H         4.45229696785038      -0.82483903619082      -1.27024603873973
H         5.50028609640176      -0.44311097680186       1.58333763727505
H         6.03681325804249      -1.66792922088255       0.42642387230462
H         6.37020301834890       0.04437099229329       0.11944420971368
Cl        0.73702130456079      -1.45714801469043       2.48082251481240
