50
C14H30BF4N optimized with ForceField in AMS.
N        -0.06826838227296       1.47694481829197       0.00870361032887
C         0.52201809124816       2.41483691440736       1.01343126617179
C        -0.73190959795720       2.35902944767063      -1.00045815396111
C         1.01718317336997       0.68770995655215      -0.65874027619394
C        -1.08419893544362       0.60143470371142       0.67918402665977
C         0.00396643898395       3.81131791742542       0.72594993643605
C        -0.29187270182112       3.78739240573997      -0.74652483710056
C         1.77122240239298      -0.29411361234166       0.26952206891493
C        -1.77132990352513      -0.42485026762531      -0.25462072552594
C         2.98227253601743      -0.89542615000531      -0.45600373332327
C        -2.88003923925360      -1.17736650645378       0.49273391857833
C         3.72100618718261      -1.90488373270217       0.42925943829059
C        -3.58927637753383      -2.17969230055245      -0.42466616041547
C         4.92494131353463      -2.49484276720545      -0.30098420491502
C        -4.66320229711394      -2.95462012746957       0.33471905309872
H         1.63300987822839       2.46349019314867       0.94428125626639
H         0.28855567061529       2.13679868938120       2.06669089309686
H        -1.84203205213325       2.34436276902823      -0.90757880482641
H        -0.50290737662600       2.07641595468104      -2.05341231588904
H         1.75762937521987       1.38665687478856      -1.11386521208940
H         0.60596589289317       0.10324467065350      -1.50763045504016
H        -1.87467361239360       1.23850089022950       1.14070110310915
H        -0.62300505812625       0.04843185943107       1.52689122432265
H         0.75344964652543       4.59295838560116       0.97859520578838
H        -0.93312923792172       3.99233839455469       1.29785737696778
H        -1.08368191012476       4.52026698022600      -1.01582847015035
H         0.63384069695683       4.00674583122626      -1.32352320467390
H         1.09779415202626      -1.12402930991604       0.56964240564604
H         2.12103563789894       0.22110778574108       1.18826959111732
H        -1.03307334270473      -1.17041860577700      -0.61568410196005
H        -2.21364215528519       0.08362291571244      -1.13657734506369
H         3.68124839136137      -0.07871638662942      -0.74115976122453
H         2.63788726071177      -1.40466088870195      -1.38298733521873
H        -3.62492584015001      -0.44861715956133       0.88112535377225
H        -2.43379615835121      -1.71955107632913       1.35514596290188
H         3.03285653048527      -2.73078028097960       0.71259567160839
H         4.07316733549183      -1.40431432451461       1.35731908496071
H        -2.85102835760721      -2.90100439640386      -0.83754598881214
H        -4.06646556097892      -1.63963747645947      -1.27119754211757
H         5.43853631328072      -3.22754504062841       0.35634759805978
H         4.59784523522949      -3.01622700065852      -1.22580496177732
H         5.64492535560429      -1.69240651937500      -0.56849579133298
H        -5.16427616312325      -3.66853038684945      -0.35238817112031
H        -4.20706288061556      -3.52756163992007       1.17003479467332
H        -5.42690332102308      -2.25842732775832       0.74199242188162
B         0.23853710833100      -0.00021793498992      -4.66237566570742
F        -0.80072779371311      -0.21911871532422      -3.71940429588198
F        -0.16452510818593       1.00068451902936      -5.58540524709916
F         0.50527804700784      -1.20815950816904      -5.35962116706092
F         1.41411524238769       0.42538147236939      -3.98860809237020
