57
C15H28F6N2O4S2 optimized with ADF in AMS.
N         0.61107023831371       0.54358303069355      -0.07427882765861
C         0.13950450472217       0.08181925194066      -1.43789511599654
C        -0.47759819444415       1.38793913273364       0.55869786046592
C         1.85255197469075       1.40599522906122      -0.31047318825615
C         0.93264865454164      -0.63221125350015       0.84917810479641
C        -1.17757364983879      -0.67035713394110      -1.38314442746891
C        -1.84280980112542       0.71224920163642       0.58951428744163
C        -2.27253315397472       0.21303968536146      -0.78792281883709
C         2.42972618923814       2.10615348176220       0.90437855839833
C         1.65590680074633      -1.80525564167451       0.21657103590345
C         3.53964320883165       3.06025911864833       0.44475439029217
C         1.84534641561966      -2.90594623306776       1.26637703847382
C         4.26333442428724       3.68761726924155       1.63154289812511
C         2.52711915560744      -4.13888811480763       0.68025908948906
H         0.95645401523405      -0.50589832092626      -1.87379645675917
H         0.02630247118444       0.99974804365671      -2.03668722038750
H        -0.51709259637020       2.31672384221771      -0.03318966481958
H        -0.13622661333376       1.63553338392229       1.57175557513928
H         1.54945426951562       2.13875160730902      -1.07617803441117
H         2.61581235618099       0.74164261257068      -0.73969660430992
H        -0.02483275665617      -0.96656034466419       1.26891808559089
H         1.54066437458771      -0.21310100096118       1.66335147845135
H        -1.07043425903242      -1.59888177499688      -0.79807861711507
H        -1.42966377407942      -0.97429883478418      -2.41239570112095
H        -2.55887288792638       1.45298547836076       0.98282194193531
H        -1.84316368511343      -0.12257982672985       1.30962538422073
H        -2.44790774550558       1.07551078820382      -1.45675477915303
H        -3.22377533852261      -0.33704869349105      -0.71666976815966
H         2.87287508042205       1.36864928279263       1.59174584896733
H         1.66652470612875       2.68802636746200       1.44946952347627
H         2.63595566992579      -1.49056615105501      -0.16901839810018
H         1.08071916623117      -2.22376373220858      -0.62604340509251
H         3.10310610287617       3.84801256758179      -0.19679504844706
H         4.25589157347817       2.49646283783370      -0.17398601110799
H         0.85727255270735      -3.18188439053583       1.68211716299214
H         2.45110200773887      -2.50576684652396       2.09651715918021
H         4.72341228362196       2.90663075234353       2.25529258566177
H         3.57165240548012       4.26925138360644       2.26326597795889
H         5.06395831449618       4.36165745682171       1.29265941881826
H         3.54115228201044      -3.88813126828384       0.33632839912043
H         1.95608356221238      -4.54134593861210      -0.17279854083858
H         2.61435107626829      -4.93396571680446       1.43544877664040
N         4.73356682060082      -0.03746546063468      -0.16218504910611
S         5.53374380449013      -0.14533533597724      -1.56434210479003
S         5.11953720231002      -0.87270951272075       1.16490641478983
C         4.54666700851436      -1.43432805458640      -2.53160406351112
C         6.69519532286364      -0.07193197114396       1.86073046451379
O         5.24971521217707       1.08173441117547      -2.29953938926369
O         6.87749220038953      -0.69543393013346      -1.49272185707005
O         5.47082976781743      -2.27414318011723       0.97412700362409
O         4.09777771125219      -0.51654707136329       2.15656274620148
F         5.09130179780650      -1.59375022952658      -3.75751704566429
F         3.24811316394727      -1.01794928916368      -2.70283076357128
F         4.51101446518183      -2.63363076521729      -1.91236592854772
F         6.74020687169477      -0.30622107187748       3.19524967565059
F         6.68178780669138       1.26953266648071       1.66193473342244
F         7.80059230368685      -0.58698639738741       1.29601396322258
