57
C15H32F2N2O4S2 optimized with ADF in AMS.
N        -0.56981294820876       0.69519909211514       0.19217353613859
C        -0.68999655183957       1.75568590292366       1.28618607280680
C        -1.84808706451493       0.69632965772586      -0.61951099248195
C         0.57326614878548       1.08971152255806      -0.73636887374943
C        -0.30148272680018      -0.65756242452998       0.82769262041094
C        -1.92138864031029       1.58939023121038       2.15483536889046
C        -3.09157652358900       0.48738232645373       0.23134330689752
C        -3.19982990538516       1.55502449829361       1.32152810506923
C         1.95911449160254       0.97012927293327      -0.12707043564769
C        -0.19461220119415      -1.82713669985497      -0.13425431300125
C         3.00077903577745       1.72237767701121      -0.96091534519595
C         0.24829527717715      -3.07482937289570       0.63881170121907
C         4.37188198255578       1.71062355344022      -0.28331771358842
C         0.37503222729503      -4.31028002071018      -0.25109843473219
C         5.43143116521031       2.46208105335511      -1.08420713198089
C         0.82870398915782      -5.54591300347262       0.52327410657137
H        -0.72023040755389       2.71760652978516       0.74818016812911
H         0.22798538340631       1.72286161447693       1.88180341832752
H        -1.73885956635056      -0.07096006354177      -1.39802410373712
H        -1.88312272361169       1.68265690808922      -1.11153496750041
H         0.36310082550407       2.13370255094419      -1.01849286723981
H         0.47162874992708       0.47045457834991      -1.64067758420788
H        -1.10019075423437      -0.83024143948221       1.55707048046334
H         0.61813646545533      -0.53402605447568       1.41073215837619
H        -1.91595540566720       2.44039874918219       2.85525945415395
H        -1.82287323816245       0.69444752557726       2.78831527714149
H        -3.08438865343322      -0.52154900022143       0.67899342416762
H        -3.96122614007295       0.51941898374396      -0.44636027468981
H        -3.35963696844961       2.54119672177637       0.84584120902065
H        -4.07683978972636       1.36392072505381       1.96039672481030
H         1.97540526163633       1.38568698082438       0.89046144757373
H         2.25497445252534      -0.08819600763611      -0.04637120268026
H        -1.16284640140779      -2.03282143359140      -0.62305792304579
H         0.54002658614214      -1.62433121808922      -0.93164001376294
H         2.67663748255055       2.77156587072356      -1.09327655992248
H         3.07835421748336       1.28164031667881      -1.97322099109280
H         1.21568817366759      -2.87074816838209       1.13217797021852
H        -0.47208824680504      -3.27777812261326       1.45225579575892
H         4.68991569077552       0.66439810067075      -0.12619707043393
H         4.26895370944513       2.15599409771742       0.72173757211410
H         1.09238435745007      -4.09833111930148      -1.06497534304951
H        -0.59767759081403      -4.51142432475020      -0.73677811216170
H         6.40179147433696       2.45922097191690      -0.56473625848349
H         5.58004042592564       2.00697364592938      -2.07706364676379
H         5.13862528525194       3.51344184527905      -1.23697250163638
H         0.91444050987237      -6.42461979498650      -0.13449009710337
H         1.81112406898429      -5.37797357760086       0.99231316826761
H         0.11515512204118      -5.79359852536533       1.32522821800415
N         2.25335442054983       1.23650280875038       4.86898740971732
S         1.87708576195254       2.64511413226271       4.20509540177992
S         1.73500272986484      -0.14466634642922       4.26238644595997
F         0.22754444085036       2.76843140879450       4.43680523189839
F         2.58890142584654      -0.29868423281400       2.81587667522036
O         2.43616809093476       3.70157475932823       5.01417386227045
O         1.98911381875455       2.70018626520074       2.74748713198800
O         0.35205357690317      -0.15109173666738       3.79118908728515
O         2.23169005833185      -1.23312385326449       5.07177903433848
