31
C11H17NO2 optimized with ADF in AMS.
N         1.68053883526079      -0.69426889313662       0.32554559804317
C        -0.76538915157690      -0.26396106388770       0.22159612671743
C         0.37898379002193      -0.98774095339101       0.92618814420920
C        -2.12345162359287      -0.56119054684419       0.85215365562356
C        -3.26388104116869       0.15815247826101       0.13616192530283
C         2.38407371958427       0.45170741096178       0.82970431654936
C         2.12603051900520      -1.43689419170311      -0.72851928396107
C         3.55334876252405       0.81662022451432      -0.00386664769649
C         3.24091146452863      -1.11387062163235      -1.43944965455011
C         3.95327733709584       0.06713425550415      -1.05935719812559
H        -0.77080568192809      -0.55667629650523      -0.84438043045693
H        -0.57681322752941       0.82486504012193       0.24742200358535
H         0.22409216845854      -2.07952031724801       0.89015608977687
H         0.43081127125227      -0.70509991359403       1.98958595052979
H        -2.30338616420318      -1.65220700807572       0.83636423929993
H        -2.10476533800551      -0.26554170242225       1.91707828391235
H        -4.23665257831794      -0.06752075780364       0.59877305402421
H        -3.11936922709754       1.24984050446237       0.16772284274257
H        -3.31438952315540      -0.14257861757492      -0.92261295462902
H         1.68660590839452       1.29889501754632       0.95481580362698
H         1.51568754707546      -2.31070019808277      -0.96213044247666
H         4.07004300030192       1.73671650767594       0.27312215762061
H         3.55815958753353      -1.73381276420091      -2.27492744660768
H         4.82572008285352       0.37749579081879      -1.63910777696953
C         4.11635183063540      -1.70304200078663       1.92776739285603
C         3.53326810493134      -0.65945721082260       2.83494051454192
O         3.73072829477071      -0.64157961953176       4.03511645631270
O         2.72157816176877       0.30884915410857       2.31037071387297
H         4.78355300274967      -2.33506527976394       2.52601879972985
H         3.32009636969184      -2.32128306143766       1.49119384454120
H         4.66947706603732      -1.24567541503012       1.09669441565417
