49
C15H31NO2 optimized with ForceField in AMS.
N        -1.54044286594604       0.09993311773926      -0.08523138789671
C        -2.55631603263314       0.49111489598865      -1.11731672690427
C        -1.77979929641763      -1.32620769779036       0.31232678999202
C        -0.19596220117133       0.19344616723876      -0.75251633734544
C        -1.61573861117152       0.98018704389992       1.13322322623525
C        -4.01501483482283       0.26528113053601      -0.68427990649845
C        -3.22249963819294      -1.61456066173556       0.77340380179612
C        -4.23537618556780      -1.18968060685930      -0.28437173169180
C         1.02675424631773      -0.12140166123578       0.14527711235837
C        -1.26422963425331       2.46281172793617       0.91108733532069
C         2.33149845498541       0.03771088395045      -0.64647253064212
C         3.55159598827136      -0.29462719974235       0.22106120610029
C         4.85236619986167      -0.11278706325436      -0.56953335443204
C         6.06796386320563      -0.47807020677445       0.27673147776894
H        -2.40369300828914      -0.10323104157741      -2.04879641749857
H        -2.43630105040748       1.55022580799431      -1.42629677162389
H        -1.10958102369839      -1.62528811755533       1.14678141622605
H        -1.55784273435167      -2.01077828314151      -0.53883270802903
H        -0.05466924625501       1.20393450071099      -1.19712979889340
H        -0.15499916473608      -0.50623999801280      -1.61988080660060
H        -2.62748174683289       0.96183203766413       1.58196252746838
H        -0.95458718264362       0.59057841352194       1.93720201025619
H        -4.68546966661817       0.50549059768256      -1.53784659835858
H        -4.29840017047832       0.94448029840484       0.14554741541517
H        -3.44032292746796      -1.10740415747347       1.73629800925152
H        -3.33195187047455      -2.70572214025037       0.95477692374875
H        -5.26488958783928      -1.31363289692664       0.11510785643752
H        -4.13217849029288      -1.84196986158351      -1.17957866327028
H         1.06856258433218       0.56879920545985       1.01194209851810
H         0.97245178928269      -1.16473565116359       0.51845452582123
H        -0.22003082244926       2.59611802428707       0.56544990503065
H        -1.96454778668430       2.94998154532627       0.20483916520673
H        -1.35519644272923       2.99842976620661       1.87967214803869
H         2.41389221108663       1.08592683905355      -1.00998917090496
H         2.31343157752070      -0.64115120613142      -1.52765352870372
H         3.47695763986392      -1.34796450557693       0.57111549731003
H         3.56642549050268       0.37375402880856       1.11044952919332
H         4.83725570937396      -0.76054132840770      -1.47319902315758
H         4.94647867369324       0.94586660765597      -0.89652200217623
H         6.01826681522142      -1.54470083479844       0.58286097493756
H         6.99382939287258      -0.32078775981766      -0.31567743565639
H         6.11322458631699       0.16102938415513       1.18314750480806
C         6.28275187990896       2.42526496116235       3.89171917410556
C         5.38725053646871       1.65101518283977       4.80677077202612
O         5.20175997065557       2.03862677845794       5.94880858051220
O         4.83975304078711       0.63237590630530       4.41590564234220
H         5.87554607276010       3.44827221860563       3.74909158917290
H         7.29889124587465       2.49462864154385       4.33400042004642
H         6.35664210646088       1.92816050797313       2.90157705183902
