50
C14H28F3NO3S optimized with ADF in AMS.
N        -0.57456929652040       0.37715266113481      -0.34651670142874
C        -1.44155761764980      -0.00602534306831      -1.54437537333721
C        -1.24637390939169       1.52278636185980       0.38619712870435
C         0.75712588718276       0.85425817412467      -0.91294038980804
C        -0.37823544887528      -0.78683505902244       0.60285020597649
C        -2.87031910216779      -0.33348056487549      -1.16430934233470
C        -2.68648127541357       1.23032345374526       0.78493399636266
C        -3.52958653282915       0.82863578594129      -0.42465537409376
C         1.83399305114759       1.19775905153679       0.09879438573320
C         0.33849461319862      -1.98556095455819       0.00669846763192
C         3.06821996692244       1.72693159595088      -0.64303985917052
C         0.50433169562066      -3.09523643275656       1.04757380036606
C         4.21442542974456       2.06962878756441       0.30314050992411
C         1.21602097835019      -4.31430470396081       0.46480156083718
H        -0.94681509177380      -0.82811073120074      -2.07170136111166
H        -1.38721149800933       0.84980478561581      -2.23422586425639
H        -1.21365106296507       2.37253943330618      -0.31375487190871
H        -0.62491953347261       1.76297524014098       1.25986121082279
H         0.51434505500700       1.71104044696798      -1.55715061511166
H         1.09350974156635       0.06757173080380      -1.59812629903772
H        -1.37529728746125      -1.08029507335002       0.95482044160482
H         0.17433112626541      -0.38769812533828       1.46749296285606
H        -2.92505296686442      -1.25627619907006      -0.56032793477074
H        -3.39156079340063      -0.55101657308234      -2.11095569822967
H        -3.08224676278541       2.14743148769231       1.25356167637525
H        -2.72632273705259       0.44878670735660       1.56303293097905
H        -3.61357256268605       1.69087002634953      -1.11058163963347
H        -4.55184247932188       0.56571711510096      -0.10906794683618
H         2.12913182221037       0.31020366996195       0.68481397587881
H         1.49271453813405       1.96637822772394       0.81425261985511
H         1.33201048740944      -1.69972515254827      -0.37226924773156
H        -0.22299591701326      -2.38080984759926      -0.85419857306751
H         2.78439520383171       2.61825776629188      -1.22857184249885
H         3.39805939738984       0.97351734002553      -1.37935737821456
H        -0.48709335463060      -3.39398864250248       1.43363087359243
H         1.07540295099115      -2.71013894993115       1.91189577233967
H         4.53992134478934       1.18475634735069       0.87309999870469
H         3.91759238315216       2.84654954220491       1.02626929406419
H         5.08300599923224       2.44616586051757      -0.25687003109211
H         2.21739836386039      -4.04634026149150       0.09292874889655
H         0.65008957387895      -4.73430920903892      -0.38121490270139
H         1.33391538267101      -5.10324856001301       1.22177041237159
S         0.02594309658904       0.02320546271416      -4.81659774711171
O        -1.19141324439019      -0.75539351031310      -4.51221275049740
O         0.25838722305993       1.16164943286866      -3.89533533687540
O         0.33143161464090       0.26131723273038      -6.22533087695740
C         1.38999450188547      -1.17914076695914      -4.28963979930545
F         1.53781390981452      -2.21076908650005      -5.15277506943638
F         1.11547400268271      -1.74329184139340      -3.04854436307583
F         2.60076756974598      -0.56408893660820      -4.15728759204224
