38
C12H23ClN2 optimized with ForceField in AMS.
N         0.20166070484868       2.30442235817332      -0.13287441552584
N        -1.86538730399274       1.48241001348435      -0.10251905842846
C         1.57747683560347       2.54801955704378      -0.56541113718351
C         2.54190796396701       1.53012161679485       0.06167607212691
C        -3.06318159714565       0.74758894918636      -0.50834583974014
C         2.15496519095467       0.08661751376352      -0.29202226262233
C        -3.10306089798910      -0.64475408316245       0.13769876410019
C        -0.77560591110664       1.72392823288142      -0.85723718353329
C        -0.29036580455032       2.44499960339097       1.11483095394561
C        -1.57304630560041       1.93637027381202       1.13342615178577
C         3.16342534236961      -0.92169824256624       0.26504642400684
C        -1.93900604722299      -1.52781132960841      -0.33528162499672
C         2.74151267776481      -2.35144089446046      -0.06570323950991
C        -2.00535966599296      -2.91754068407951       0.28831936782214
H         1.87943772963057       3.57563231655942      -0.27052677036134
H         1.64455014935426       2.48250248555699      -1.67392851943200
H         3.56759985023999       1.73985591802318      -0.31237466082149
H         2.54675968991581       1.65702412647304       1.16634368235197
H        -3.96450935269188       1.32207136802931      -0.20357019204315
H        -3.09070140754478       0.64274861864690      -1.61536444478237
H         2.09495189827400      -0.02164576505390      -1.39736350998899
H         1.15921602821767      -0.13923349629560       0.14207870756889
H        -4.06448274337435      -1.13152929583364      -0.13577923928313
H        -3.07456537248602      -0.54220349740000       1.24437644785223
H        -0.66788048319177       1.41404936173379      -1.88932576838369
H         0.25957961724302       2.84007858351454       1.95880729954922
H        -2.22498734359764       1.86079267736769       1.99370941209533
H         3.23073848573789      -0.81333179158603       1.36960265775817
H         4.16692244235845      -0.72975838983363      -0.17280043114909
H        -1.96655433374366      -1.62628028366182      -1.44201069719070
H        -0.97402828778048      -1.06380339678768      -0.04778337882561
H         2.69445395631032      -2.49525674527178      -1.16609833513991
H         1.74410518193565      -2.57143771817808       0.37161482052918
H         3.47996827735574      -3.06511982224568       0.35616563068850
H        -1.96324928891541      -2.84616565029057       1.39597588456472
H        -1.14049717093525      -3.52072772163840      -0.06058057613957
H        -2.94265905363451      -3.43101682501263      -0.01333497611595
Cl        0.87495942901497      -2.81540415656892       3.32169025965155
