24
C6H8F2N2O4S2 optimized with ForceField in AMS.
N        -0.72086289927550      -0.00969953320042      -0.01180408362344
C        -0.03350986112670       1.17081559733680      -0.08221723035938
C        -0.05334303990582      -1.20357374222359      -0.03099664524870
C        -2.18482240884856       0.00487313936420       0.05122260328063
C         1.36193363775871       1.17527083935689      -0.15481425070691
C         1.34179146692287      -1.23457065726004      -0.10315414920402
C         2.05088799499759      -0.03636190433309      -0.16553304677707
H        -0.56147361419649       2.11716016237215      -0.08174742026196
H        -0.59692152467979      -2.14014285171073       0.00799087592974
H        -2.56719022921472      -0.88521471098939       0.59674617093217
H        -2.54806585807150       0.90701765927984       0.58998531679732
H        -2.60210600979114       0.00526902325474      -0.97771565625010
H         1.90420284504207       2.11080242207626      -0.20331770478695
H         1.86835949250673      -2.18018866113302      -0.11268862818975
H         3.13173879325075      -0.04661569917526      -0.21878091929287
N         4.29987502589649      -0.64525616599766       4.77610435475742
S         3.00704094967988      -0.82845829521616       3.79024911593133
S         5.73206871079516      -0.10185181908681       4.20197337836553
F         3.26712955850435      -2.13052637468809       2.77087302415526
F         5.54768637888768       1.46141192944856       3.63191244880716
O         1.77706848150011      -1.07941665900721       4.61520030757449
O         2.81626770123932       0.40975674757794       2.96051430677333
O         6.19221101921049      -0.97914008929502       3.07189043618291
O         6.75458846371800      -0.11736854485090       5.30232452121387
