43
C13H24F3NO2 optimized with ADF in AMS.
N        -0.78895532767405      -0.29914808084428      -0.08019529988667
C        -1.08430103939255      -1.21249184736858      -1.29043145366816
C        -1.98195009897447      -0.49710493941913       0.86664195379855
C         0.48611500448520      -0.74680696102511       0.61226571744413
C        -2.55915277298468      -1.55461914302445      -1.18373938403414
C        -2.73178566270532      -1.70178954878716       0.32637136090939
C        -0.71093289125777       1.13436162295666      -0.54117393960843
C         1.73484039247168      -0.59729085812367      -0.23266936488001
C        -0.42376051472822       2.14544655878898       0.55678695377273
C         2.91632109929871      -1.26584213029818       0.47437172388416
C        -0.55516515102431       3.56734994730423       0.01069923567420
C         4.20419367619017      -1.13083047256470      -0.33055428477947
H        -0.78812487625596      -0.68045882464908      -2.20299856487298
H        -0.47207501777247      -2.12617797106335      -1.14793739466377
H        -1.60560409215065      -0.60667564307499       1.89131815988323
H        -2.59403296534755       0.41397618284473       0.80324580015540
H         0.33795815808121      -1.81757194054973       0.82825385225781
H         0.55854603400316      -0.17212685564672       1.54807029936241
H        -3.20565192178538      -0.75914304578723      -1.59483307632920
H        -2.75946607813583      -2.50193650243952      -1.70546308836487
H        -2.25297320337837      -2.65050566344652       0.62372833372338
H        -3.77944460545998      -1.70188358047777       0.66080239860007
H         0.07111302413629       1.17670300986063      -1.31366870812039
H        -1.67756705784590       1.34445551635958      -1.02808926111842
H         1.58540714447133      -1.10551722744048      -1.20024760648912
H         1.96947190982074       0.46563323482908      -0.42477243149341
H        -1.12009728242763       2.00895600450093       1.40159304858842
H         0.59479039449815       1.99394186497121       0.94925476615798
H         3.05059447191538      -0.82120338170755       1.47808947973082
H         2.66478599988649      -2.33155755729339       0.60665449336347
H         0.12698384192298       3.73399269508409      -0.83806722660356
H        -1.58134105556611       3.76754744782634      -0.33543891018725
H        -0.31077854547193       4.30380613162146       0.78895233809081
H         5.04246998453592      -1.62298993500065       0.18361704070636
H         4.09014447048668      -1.60577708136282      -1.31791727700795
H         4.47443998484140      -0.07353067520656      -0.48807693361379
C        -0.08336313737178      -4.46352587213683      -0.18353571034416
O         0.78961886603749      -3.58114208690501      -0.41768754914679
O        -1.32810169697707      -4.41602106989274      -0.29241290287945
C         0.48739406614609      -5.80292305584445       0.39975111835502
F         0.56921791465750      -5.70409993696998       1.77477617440405
F         1.74474811526412      -6.10072880911770      -0.04555884703157
F        -0.29314681076270      -6.88704507527957       0.12964947796116
