73
C21H32F18NP optimized with DFTB in AMS.
N        -1.81045026538480       1.54925967325195       0.63683078743247
C        -2.98759758931457       1.66495638402383       1.56777482889361
C        -2.24096285286091       1.92798177044467      -0.75448610559161
C        -0.76508447972672       2.55930830869798       1.03654861374555
C        -1.27565964913471       0.14748948978437       0.70040772658787
C        -4.20291726213024       0.87457880349258       1.09951694539173
C        -3.42626765652885       1.11876501303919      -1.26049547523278
C        -4.61368462357502       1.27593792121501      -0.31429562858440
C        -0.28109943200102       2.46054771749720       2.47950324644303
C         0.01600840687075      -0.09935560835322      -0.07658590475730
C         0.89358934609670       3.42718341467451       2.67995671123716
C         0.34593352862573      -1.59703612422693      -0.04231602735489
C         1.32623481899269       3.46530299491075       4.14835182961986
C         1.65224945540165      -1.88799889124034      -0.78804587535110
C         2.48397116459833       4.43965085892437       4.35586219470304
C         1.98442517353872      -3.37844710273381      -0.76134207081148
H        -3.23645004822023       2.72431854641232       1.63644856610442
H        -2.66741465520806       1.31220833302299       2.54962087683819
H        -1.37744690291141       1.81377084596520      -1.41193767497889
H        -2.51253561309335       2.98471880500720      -0.71704371381224
H        -1.21280680550981       3.53797879295472       0.86699437588549
H         0.07024128210138       2.44749299524645       0.34217700832172
H        -2.05717555343572      -0.51366292890524       0.32213486946481
H        -1.11863390728007      -0.08703122848416       1.75593265028401
H        -5.01456067394519       1.10077626308349       1.79534678963551
H        -4.01144254456181      -0.20169257543206       1.15052324893774
H        -3.16250646201848       0.06345962894539      -1.37832386436639
H        -3.68441503394502       1.50938034214672      -2.24811502539866
H        -4.94329467524242       2.31769180881650      -0.31735108365707
H        -5.44383907642076       0.65069444664420      -0.65035643473462
H        -1.08740652444129       2.73749838147653       3.16327494337896
H         0.04063244517446       1.44324822127515       2.72019978498757
H        -0.08934574254709       0.22048505487932      -1.11619537110394
H         0.84421441601426       0.45688787743352       0.36927551855310
H         0.59274596392958       4.42988968125785       2.36431357988903
H         1.73477049952115       3.11417288457381       2.05192888078792
H         0.43617032617564      -1.92529768398390       0.99857387748825
H        -0.47287313220272      -2.16093569164032      -0.50169580384632
H         1.62802871292129       2.46165997550383       4.46789669369348
H         0.47686318238859       3.77339879787348       4.76660258228916
H         2.46774508847614      -1.32307403364140      -0.32458960079280
H         1.55960371146201      -1.55225476500694      -1.82617663542745
H         2.77491971174865       4.45328046598126       5.40614281251007
H         3.34726127234477       4.14223641709008       3.75883831423278
H         2.18927160260133       5.44787119027614       4.06322766906746
H         2.91627458770332      -3.56057259216937      -1.29620163508210
H         2.09899711780222      -3.72640316101609       0.26596550913616
H         1.19109447798268      -3.95575628235107      -1.23770129709877
P        -3.85238434043622       6.05681337781967       0.73446616077900
F        -4.72933105085184       6.19155058203839      -0.68348226579319
F        -3.70539825929107       4.35881641560409       0.43470058599738
F        -3.94806302326878       7.68825281581158       1.04947903118446
C        -2.23823038462766       6.36463254114935      -0.34024315424030
C        -5.58782737323496       5.78840385924891       1.60543420665773
C        -2.78764279104932       5.71758811168920       2.40844444184101
C        -2.40213921921647       6.99317922246450      -1.75035760626053
C        -6.28775357193251       4.41519964951563       1.43258905470533
C        -2.50464914278342       6.80965890053752       3.47537295860593
F        -1.55892144091251       5.20510623438983      -0.55544123807748
F        -1.41575627829579       7.17193354349967       0.34842735426756
F        -6.43750281437384       6.70955116785386       1.12782772264740
F        -5.49037374475927       5.99506994588582       2.93138035716446
F        -1.55409971412977       5.27395867068711       2.04713966909563
F        -3.35776572276647       4.66963385399760       3.05048319373379
F        -1.20227074517521       7.33523358434546      -2.23101725460879
F        -3.15896808068864       8.07988055318016      -1.73324850404394
F        -2.93124971827782       6.11028088782619      -2.59759471579651
F        -7.50959102384854       4.43259507510809       1.95931435003947
F        -6.40188910580398       4.07100710418518       0.15109116702589
F        -5.60234850672393       3.44263443529605       2.05223344928923
F        -1.88728396642867       6.25323422328868       4.52612668865424
F        -3.60552623822296       7.40014411516412       3.91637153910090
F        -1.69744263483209       7.74192692997578       2.98054826987385
