39
C9H20F2N2O4S2 optimized with ForceField in AMS.
N         0.26961713807907      -0.11607451333819      -0.19379846187233
C        -0.59581406678804       0.69242128737383      -1.11329379818499
C        -0.49558900839820      -1.32648664100466       0.25282688344092
C        -1.95878617985952       1.07957101132864      -0.51535972972951
C        -1.87191064046078      -1.00776752048199       0.87081161986413
C         0.70202191016700       0.67777060536268       1.00940110987472
C         1.44980289746872      -0.57044211915551      -1.00695513732085
C        -2.72140913072535      -0.16607888203076      -0.07617265408267
C         1.57891119269486       1.90943640152122       0.71732135567079
C         2.52784023279424      -1.36031069204297      -0.24136047906150
H        -0.80607626900975       0.11623753516020      -2.04499025331042
H        -0.07919890624402       1.61447584745735      -1.45265719841969
H         0.07578233164548      -1.90076656728798       1.01376275319514
H        -0.66903827706010      -2.01660109874193      -0.60515114710528
H        -2.55432006506701       1.60806988555263      -1.29100794005975
H        -1.84094623628795       1.78375556813000       0.33387195315854
H        -1.76010275490082      -0.49000201189247       1.84614477182026
H        -2.40375829215831      -1.96221198977727       1.07555945943628
H        -0.16981624583790       1.04390519258924       1.58527265787041
H         1.25163467740841       0.02945944221050       1.72602372666468
H         1.11099564045178      -1.21880198214700      -1.84780230795092
H         1.94636842924693       0.29426619776551      -1.49985651363515
H        -3.66208558067464       0.13372661427693       0.43379567509548
H        -2.99219300265038      -0.77164011950774      -0.96943144998028
H         1.86881189712273       2.37751847214197       1.68094400886583
H         2.51839076301783       1.64172648753967       0.19585952738368
H         1.02627183105421       2.67575912072489       0.13871427745664
H         3.32254372700557      -1.66210446744362      -0.95592428915520
H         3.01312715823377      -0.74447978814404       0.54169650103721
H         2.11902702809984      -2.28822890923895       0.20471132571038
N         3.31132996563142       3.24271909590601       5.47953491260535
S         1.68039273166628       3.31286206488211       5.59617569609429
S         4.15140504713048       4.34709782068925       4.61241989704569
F         1.00047050941869       2.73449147530407       4.18072721252051
F         4.06501057002684       5.83373079398245       5.37763031151178
O         1.22346212874598       2.46420158062564       6.74777627411872
O         1.23691408052645       4.73359691036301       5.80497874486398
O         3.56134102930800       4.47328159580591       3.23613924101755
O         5.58739321057820       3.91919824434138       4.51072211444557
