59
C17H36BF4N optimized with ForceField in AMS.
N        -0.52406040727652       1.78372832676208      -0.19548490032259
C        -1.38325285290920       2.32397289190803      -1.29947806887532
C        -0.20988262953510       2.89968354003317       0.75625871520371
C        -1.20340918796243       0.66714725572579       0.55017184913955
C         0.75643136902871       1.32364799129971      -0.83648231929122
C        -2.67039518960687       3.01240382736803      -0.81570651589580
C        -1.45375351148064       3.63834777941836       1.29329012440071
C        -2.34341944040272       4.13996275059017       0.15883059150413
C        -1.50979813568580      -0.60614267894299      -0.27558022493347
C         1.77498951900523       0.62919144009547       0.10318406209729
C        -2.19899618080713      -1.65929502211452       0.60282318447229
C         3.05058185139359       0.25842616603105      -0.66712241495951
C        -2.48543743542842      -2.94011495426957      -0.18891231005237
C         4.05571192752995      -0.46895820648106       0.23476712180922
C        -3.19562716498070      -3.97773445277460       0.68727411579863
C         5.33071731017643      -0.82026113307857      -0.54142939173828
C        -3.48026990865278      -5.25462829210920      -0.09795632575470
C         6.33588912154904      -1.54817509817040       0.34676063996153
H        -0.81505392064697       3.08265828513121      -1.88755022512492
H        -1.65337334944367       1.53548808695095      -2.03237830835172
H         0.34836623901802       2.52486971820638       1.64107816764574
H         0.44187057584106       3.65875757965190       0.26570165364951
H        -0.59460539989886       0.37148883135774       1.43299578068137
H        -2.16302530165665       1.00875564148749       0.98510253527607
H         0.53994003469895       0.63216505902059      -1.68182353768455
H         1.27560827941153       2.19130825093459      -1.30750382337384
H        -3.19706839169474       3.44355645378360      -1.69525932878104
H        -3.36673000674764       2.28397835158252      -0.35211221752799
H        -2.03726390715680       2.98760239528601       1.97717305056046
H        -1.11860873665529       4.51119645309742       1.89549054322210
H        -3.28689313238977       4.54835731006660       0.58097741281973
H        -1.82570137531616       4.96231883323128      -0.38315301898130
H        -2.18956633577007      -0.36816245652422      -1.11869572607276
H        -0.57609482278953      -1.04891744997996      -0.67930517411716
H         1.34554229284187      -0.30402311211074       0.52281666198495
H         2.05775686488966       1.30240894387111       0.93819544393320
H        -3.15744796061504      -1.24431705730374       0.98741091026799
H        -1.54499825595247      -1.90323325279365       1.46958438643830
H         3.52015633865042       1.18487887201610      -1.06697056457926
H         2.78525433670704      -0.40132474747180      -1.52328488112478
H        -3.12773242956893      -2.69692712804353      -1.06478264091006
H        -1.52572679783049      -3.36522167159566      -0.55922720922597
H         4.31746870339199       0.18308831528883       1.09790034767874
H         3.59248861632314      -1.40313406695657       0.62416677774795
H        -2.55900806160915      -4.22656527917962       1.56515439239007
H        -4.15856492043699      -3.56073305695275       1.05746236413794
H         5.07544836410698      -1.47292869458299      -1.40556021576474
H         5.80129324113041       0.11027943489491      -0.92929665548225
H        -3.96785747828474      -5.99922232199953       0.56605998168761
H        -2.53411839027063      -5.68819340893598      -0.48629199482330
H        -4.15801516611959      -5.03852557090584      -0.95144768998252
H         6.62691761564083      -0.90656364871896       1.20616353486516
H         5.89893643483176      -2.49661470473511       0.72685571789227
H         7.24651843117465      -1.78758256341453      -0.24202119798664
B         0.15724320143669      -6.22588939656899       2.19309475907870
F         0.31155708753680      -4.81774368464955       2.08697656166214
F        -0.81547110713111      -6.66827352178519       1.25906711488768
F        -0.26461552194497      -6.55897116067680       3.50772870587571
F         1.39757480844380      -6.86111380786446       1.91859087524761
