38
C10H22BF4N optimized with DFTB in AMS.
N        -0.07240319584774      -0.51330816649647      -0.06838124878588
C        -1.10476283157342      -0.72303168630702      -1.13030845680414
C        -0.85300447455015       0.14627410803195       1.02079417082030
C         1.00657859952870       0.39522990185290      -0.61711747513092
C        -1.99725226336933       0.51880344305020      -1.08139151070800
C        -1.74539438937784       1.14885859599894       0.29879680925729
C         0.50851026462103      -1.81936470495322       0.41290448523632
C         1.89823135033279       1.05920709569739       0.42689593235036
C         0.86948694526255      -2.78265036945639      -0.70664418576041
C         3.06900826063598       1.74397988177705      -0.29338960434707
C         4.01062734694499       2.40799870619801       0.70708614471370
H        -1.67259251639377      -1.61984816549915      -0.87329254634473
H        -0.61321868177585      -0.86648917885279      -2.09203283544820
H        -1.45658410751309      -0.62282588861688       1.50886581894505
H        -0.18113276967910       0.59082682343678       1.75215648550960
H         1.61993209723182      -0.22344546811204      -1.27584120805111
H         0.50810150170956       1.15990070726499      -1.21671352041581
H        -1.74276270259832       1.21758279800361      -1.88016922536881
H        -3.04302263192632       0.23148224313280      -1.20367768418181
H        -2.67313814651202       1.30190166897943       0.85176961749751
H        -1.24330070938867       2.11310481299010       0.19886270172453
H         1.39922811451416      -1.57101705310991       0.99085262227448
H        -0.23288867098283      -2.27576777744010       1.07487466836272
H         1.33943152934379       1.80701737666995       1.00058423197651
H         2.29649994299090       0.31364033540426       1.11771563615929
H         1.47796439297616      -3.57490518702107      -0.27207485014757
H         1.46297385716553      -2.29907670327978      -1.47848778246543
H        -0.01816313880867      -3.22761430777715      -1.15604666807005
H         3.62434988970952       0.99738072980578      -0.86644963835570
H         2.67849441784863       2.49363084213171      -0.99069778102203
H         4.43916331996007       1.66093526129881       1.37568016872459
H         3.48380207363076       3.15344785581447       1.30637447987834
H         4.82385002942605       2.90032906101680       0.17403747945959
B         3.97324409795745      -1.56206740185184      -1.15151937762941
F         5.06193375483568      -0.71475795540341      -1.13793144122192
F         4.29878917138722      -2.88027874716600      -1.36629748879816
F         3.05052639086913      -1.12683900747353      -2.15811593533565
F         3.27378539791474      -1.44260002103915       0.09422870920267
