45
C11H20F6N2O4S2 optimized with ForceField in AMS.
N        -0.40740441530314       0.17458034706564      -0.07166839561510
C        -0.97735535033301      -0.88061204927472      -0.96497994306864
C        -1.46347369320612       0.41933838647210       0.95818034349016
C        -2.44211696602674      -1.05974517376346      -0.61356498129483
C        -2.50578814708079      -0.67501780222600       0.83688006816019
C         0.83350240941396      -0.32902388574708       0.60257403301933
C        -0.16174108331629       1.41972199576081      -0.86883168899678
C         2.01602729452819      -0.61841079162870      -0.35264757258351
C         0.42157862146377       2.59383337733385      -0.06256604546029
C         3.16499495721053      -1.29308183339873       0.39342815281387
H        -0.48756555819771      -1.86994278736179      -0.81431269490059
H        -0.87588460540474      -0.64175360992062      -2.04867723288562
H        -1.99343041113613       1.38597801903955       0.79589232520952
H        -1.06563948729299       0.44955964020619       1.99848382255090
H        -2.78629618022159      -2.10450176945285      -0.77564726778388
H        -3.06427025965789      -0.36195887260732      -1.21711592115591
H        -3.51962356589630      -0.31910190459912       1.12273895519659
H        -2.21956822769614      -1.54287355358710       1.47172745012678
H         0.59563845083617      -1.26493422326789       1.16042831406984
H         1.17946780820045       0.39539569347585       1.37302476548457
H         0.52103624005470       1.21362072330823      -1.72201550103354
H        -1.11517421030426       1.76626591365017      -1.33011545276978
H         1.70365938757747      -1.28132705534561      -1.18598527431950
H         2.40260916261243       0.32669357474972      -0.78673697384807
H        -0.19458686086117       2.83042372041091       0.82813587218167
H         1.45931162750244       2.38067304843644       0.25638072918005
H         0.45221227665306       3.49766724066470      -0.70690456709080
H         3.53235956500544      -0.63575441301117       1.21017463988371
H         2.83206512341541      -2.26165616059310       0.82415053365173
H         4.00266497199921      -1.48881995625480      -0.30855384966490
N         4.38239148283681       6.27318237064730       2.01963544037112
S         5.22933399707705       7.27447620814350       1.03598518450616
S         3.53767357414116       4.98262580427334       1.46325373664347
C         4.20356517278039       8.66140657287434       0.59320593772702
C         4.53301100927732       3.51670741611391       1.64741953431842
O         6.43701995909134       7.78171059974488       1.77158834665797
O         5.66586482359348       6.55460461322794      -0.20982715743515
O         3.17211703288996       5.16544731629682       0.01622040300006
O         2.28697848774917       4.82478064296596       2.28033860886588
F         4.91639896297698       9.52333201949508      -0.21850051614834
F         3.81224499881278       9.32890498956549       1.73839695360040
F         3.08325434502178       8.21663765535721      -0.08263261198490
F         3.83942773933494       2.41976753725236       1.17476767838395
F         4.83087483878413       3.32745039290765       2.98353972062466
F         5.70686475219451       3.65754815710014       0.93208786172212
