45
C11H24F2N2O4S2 optimized with DFTB in AMS.
N         0.40581275808449      -0.53735610146817      -0.55527016854414
C         0.64129879499656      -1.75897587032718      -1.39330900750968
C        -1.08475469903740      -0.39881559700040      -0.56069050116827
C         0.88280315518846      -0.76834286407163       0.85601139415749
C        -0.50943784851149      -2.70740616250355      -1.07255667428116
C        -1.62565992370030      -1.82477326222112      -0.49363806593270
C         1.06333445692404       0.64823729783918      -1.19470604289999
C         2.39989067773363      -0.77217207492817       1.02489970546484
C         0.83914195135064       1.96363351644365      -0.45446638818822
C         2.76129641293476      -1.26056538242563       2.43210274523879
C         1.58807774570064       3.07711405295392      -1.18665306050550
C         4.27614002964665      -1.24852835022043       2.62654285541986
H         0.62388115795162      -1.44872862232146      -2.43963804443651
H         1.61997536515891      -2.17677666706084      -1.16796544163409
H        -1.40327809303566       0.22551016293159       0.27364970333993
H        -1.36633284007754       0.08037282375089      -1.50105372140888
H         0.46851889198888      -1.72996551647024       1.16911432388623
H         0.43722274809898       0.01240190568707       1.47795118154397
H        -0.83467328374682      -3.22067549619129      -1.97879826066405
H        -0.20106334818683      -3.46460128843294      -0.34874876215484
H        -1.85005934758452      -2.10614593101827       0.53724823277288
H        -2.54615103728933      -1.90371247457569      -1.07451396321442
H         2.12733046740306       0.42535155794867      -1.26193546195842
H         0.66697575063644       0.71834677799147      -2.21069720023975
H         2.87144795352196      -1.42594566654659       0.28971965401401
H         2.80101253214914       0.23279994712103       0.88221772077238
H        -0.22868034911556       2.20017361082423      -0.40972624910112
H         1.21582806665153       1.89592558702735       0.56907422452781
H         2.28676122883503      -0.61459974048698       3.17947337979539
H         2.37807853683986      -2.27713265635566       2.57578274137732
H         2.65488286853768       2.85647241140694      -1.21180306083989
H         1.22587901910819       3.17397884696334      -2.21047203678073
H         1.43645338767359       4.02399663625777      -0.66965538099609
H         4.52576065975658      -1.60621097759760       3.62549898108129
H         4.75876353982284      -1.89101124638629       1.89082456062625
H         4.66332333068046      -0.23644612469036       2.50773978067493
N         5.31143572821387      -0.57477228834025      -2.67150829466126
S         5.36113885483642       0.31254234468667      -1.35198243510429
S         4.10611194833366      -1.57839457337695      -2.81790891252171
F         5.59276686011297      -0.75734805321995      -0.15156624891007
F         2.79002772922218      -0.60833419943063      -3.12813362565028
O         6.54776911422532       1.09272817667168      -1.38189683602228
O         4.12807258873966       0.95618343275587      -0.97781994815583
O         3.68108933005992      -2.27308003878813      -1.63142976857138
O         4.25901380196678      -2.31790219340489      -4.02203411643786
