50
C12H28F2N2O4S2 optimized with DFTB in AMS.
N         0.52073813420852      -0.03526735828444       0.01711599148862
C        -0.41736445170723       0.58543425818873       1.01465153883751
C        -0.22375598899805      -0.74043622282285      -1.08239215829284
C         1.40128752088178      -1.02788917967252       0.75014487278264
C         1.38045993965936       1.04457842274254      -0.61011073638153
C        -1.50348261367876      -0.33527652703115       1.57345120767070
C        -1.30945816034207       0.07557091648343      -1.78587456094013
C         2.11551274493206      -2.05645383969643      -0.12608217139783
C         1.89758386981367       2.11999775789950       0.34483147140294
C        -2.30780333148994       0.42941408069862       2.62557570623060
C        -1.92666932238304      -0.77560659795044      -2.89635713097734
C         3.07641134165202      -2.86625239750096       0.74539332034801
C         2.83650749505490       3.05529836053907      -0.41836379727362
H        -0.88043127959398       1.44873679056515       0.53098192395485
H         0.20298678910423       0.94043779246728       1.84020964329324
H        -0.66367554158888      -1.64168831295990      -0.64887613864138
H         0.52512188809701      -1.03849807529256      -1.81904987464792
H         0.76787339401060      -1.55664867335211       1.46437940507478
H         2.13387270209338      -0.44146316397114       1.30817206254136
H         0.78117262777716       1.52488770685918      -1.38525941719642
H         2.21829298441382       0.53420449157051      -1.08847951535029
H        -2.17918707734819      -0.67079464414625       0.78370492019499
H        -1.06358932545155      -1.22053548649467       2.03844171017831
H        -2.09438400960502       0.37282619352103      -1.08710075223714
H        -0.89049662273648       0.98278447791030      -2.22717741274908
H         1.39311674572443      -2.73995085224276      -0.58167004706303
H         2.67885645146581      -1.56667732406090      -0.92217842263502
H         1.06589431124129       2.70771812154097       0.74396817745890
H         2.43579613886045       1.67170897910510       1.18129882151318
H        -3.08917716466314      -0.21460257720617       3.02697962437561
H        -1.66248249197416       0.74691875786539       3.44478074588681
H        -2.77420423854393       1.31134083821673       2.18560165851582
H        -2.70279384430941      -0.20516064450956      -3.40491947580764
H        -1.16878768371878      -1.06090697866567      -3.62612471544696
H        -2.37279698580205      -1.68068974319962      -2.48315284855569
H         3.56364467785897      -3.62536234298229       0.13516278821408
H         3.84121178132417      -2.21848893138582       1.17084254151929
H         2.53895608572983      -3.35792235223403       1.55727507960972
H         3.19110494571003       3.83386116265377       0.25527612445456
H         3.69839009889722       2.50992179231503      -0.79754733053784
H         2.31621604181495       3.52256473025117      -1.25549197573740
N         4.23843589924869       0.06653048600285       0.22083899723381
S         4.93095337376842       0.48154315012930       1.58866049038373
S         5.07216105977817       0.12601965013477      -1.13201043269804
F         5.05031749343329       2.09594083044485       1.46902465801634
F         6.00627983898313      -1.18598459695968      -1.06182083422152
O         3.92881427291789       0.28941838076800       2.59737585904533
O         6.25812014554110       0.03027795031033       1.82722357572732
O         5.97089031937879       1.21712915501098      -1.30309288379162
O         4.12968396965942      -0.16845299377267      -2.17442424887277
