41
C11H22F3NO3S optimized with ADF in AMS.
N         0.39135594342580       0.14721933472449      -0.09302736643633
C        -0.23781187127343       0.96107506474880      -1.21469299454659
C        -0.50174728674273      -1.03473215747853       0.21587327807687
C         1.73385896063695      -0.34443101421470      -0.62010279251747
C        -1.65282539440660       1.40559532239660      -0.89613051906464
C        -1.93624637985062      -0.63984098645062       0.53871074054414
C         0.57420590371496       0.97899806104316       1.16883121186535
C        -2.55060270771055       0.20962813931102      -0.57412012957712
C         2.57287685947507      -1.16150652736022       0.34438973197096
C         1.50575769011256       2.16090706193489       1.02447719559528
C         3.88837842552379      -1.52268314148446      -0.35218860451288
H        -0.23925209070635       0.28497107390639      -2.08575568152540
H         0.45891732793230       1.78090148882033      -1.44771779285512
H        -0.03744365497579      -1.58467382715866       1.04530640192061
H        -0.47126740388488      -1.67114698541844      -0.68306158625829
H         2.28963577279621       0.54940016379900      -0.93816856191212
H         1.49147250557757      -0.93220811774557      -1.52057811130381
H        -2.02626859212210       1.94793431773139      -1.78081662041411
H        -1.65897691063906       2.13478699526881      -0.06826455688949
H        -1.98107954380716      -0.10516284153038       1.50230431949311
H        -2.50692095734479      -1.57326813008064       0.68089966897283
H        -0.43014672285555       1.30357291028007       1.46624554279421
H         0.93187163242870       0.27266702972902       1.93316277551672
H        -3.56039249252950       0.54253560743653      -0.28559228093984
H        -2.66245351290480      -0.41120010969589      -1.48223988408194
H         2.80569578686201      -0.57107927542303       1.24535466700486
H         2.05028617242745      -2.07900643154325       0.66504206934978
H         1.53043640182186       2.68142463637273       1.99418600135118
H         2.53382438719864       1.87657404125193       0.75653170739430
H         1.16624800225907       2.87716073009512       0.26424539939899
H         4.53155915018012      -2.10654917097099       0.32193624093979
H         3.70596894346811      -2.12445386105909      -1.25654171796926
H         4.41834137321781      -0.60534084766594      -0.64805740438257
S         3.66281774093663       2.61850217869478      -2.01881487512151
O         2.18926697466977       2.61786024876377      -2.20320376122420
O         4.46053717412238       2.52392771247558      -3.23966270991584
O         4.11078219406198       1.78003175048016      -0.87982376927173
C         3.98549003249712       4.36290903334567      -1.39932461015271
F         3.31386442576654       4.60614119839738      -0.22947896877223
F         3.57222769483551       5.28934876429805      -2.30375267180175
F         5.30602865450501       4.56866895747474      -1.16042659254200
