35
C11H21ClN2 optimized with DFTB in AMS.
N        -1.19353523632641      -1.61256491814396       0.39429601533517
N         0.95592748457068      -1.70235718615860       0.31750916402556
C        -2.55681552006866      -1.29692387580900       0.81455830623982
C         2.36005666365994      -1.48161212684016       0.63507086458320
C        -3.05935116855843      -0.04541663504371       0.09319105961222
C         2.91102392374584      -0.30303617045295      -0.17408928638269
C        -0.08367525268070      -1.28453961598824       1.04803463417462
C        -0.86965763374929      -2.23267089852852      -0.77864548550592
C         0.48627987241740      -2.29020568618535      -0.83029944513744
C        -2.20518037367969       1.19069772895380       0.38053640937939
C         2.22855099606749       1.01892696735174       0.18998378055347
C        -2.75742576410443       2.41983023961846      -0.33951756071786
C         2.79827457000835       2.17851198399705      -0.62419289331497
H        -3.18725385045841      -2.14460352270713       0.52861093296528
H        -2.55432726040361      -1.16474359438266       1.89987896999348
H         2.44003447727568      -1.28898918184446       1.70843492646654
H         2.90869651377507      -2.39608151724411       0.39389163696127
H        -4.08624769348995       0.12818047268160       0.42546020212586
H        -3.08616318484831      -0.25219422869828      -0.97996006944422
H         2.77830663215019      -0.50802645753884      -1.24050912473717
H         3.98413066959145      -0.23304623092985       0.02604757741132
H        -0.02570151211089      -0.79709749819443       2.00573212323792
H        -1.66070502242655      -2.57419898747042      -1.44552106576738
H         1.15029916813915      -2.70082073785330      -1.57005223251733
H        -2.17771726702128       1.37921499214805       1.46037945387278
H        -1.17549491428729       1.01244571705672       0.04779009797238
H         1.15326813033478       0.93730911966780      -0.00053682513891
H         2.36550999615882       1.21699837204630       1.25860002646223
H        -3.77458355129639       2.63060039958478      -0.00768830691899
H        -2.77143073424442       2.25328311875731      -1.41702830475016
H        -2.13428255218848       3.28944351524278      -0.12839688744879
H         2.64957398719665       2.00463344356307      -1.69040969070633
H         3.86635231112176       2.29124774076454      -0.43477950373804
H         2.29564351986961       3.10551936006677      -0.34920428180157
Cl       -3.74699372033969      -2.70847844218679      -1.75589967894471
