34
C10H21NO2 optimized with ADF in AMS.
N        -0.29953264848630       0.21404129549185       0.16951575154117
C        -1.36048632295338       0.49865105330559      -0.86862493780174
C        -0.68979464300301      -1.16626227784336       0.68595041602221
C        -2.65934319877496      -0.03869186580811      -0.26492291529605
C        -2.21416063434881      -1.13281627596899       0.74432466014130
C         1.07245685339870       0.20183701379935      -0.45544662298744
C        -0.36575795610541       1.22495957648964       1.28067847252017
C         2.20275569683295      -0.03533980835286       0.53690165222752
C         3.47518332182847      -0.45665176394376      -0.19472886982416
H        -1.06864788899454      -0.06630109435702      -1.76799577334867
H        -1.35778147730912       1.57445206571035      -1.09733876451499
H        -0.20225898128668      -1.28874401121213       1.67817181494198
H        -0.30934635542876      -1.87927359906815      -0.06321432740746
H        -3.30590575430734      -0.43324452579747      -1.06241850212763
H        -3.21844255225562       0.76215400731598       0.24221788804488
H        -2.50471927826065      -0.88106611703664       1.77800727352470
H        -2.62527181250207      -2.12100140831775       0.49219543737091
H         1.19132532171281       1.16479639077850      -0.98136513938942
H         1.04369442748855      -0.59932179342755      -1.21353310057457
H        -0.08743356781917       2.20209000053836       0.86109895807829
H        -1.37876881045906       1.22582554145683       1.69922842946844
H         0.30225486843096       0.87231792267637       2.08346079983227
H         2.39009806605048       0.88452361297812       1.11379310900402
H         1.90629253763290      -0.79470533426013       1.27836385277677
H         4.29733618674427      -0.59596538332024       0.52138282523264
H         3.32963932290664      -1.41040232542531      -0.72703227932815
H         3.79467411638467       0.29847128059816      -0.93114882461179
C        -0.13184892071750      -0.96195013691650       5.54676494781844
C        -0.35338336037228      -0.67283311157347       4.05549237556733
O         0.68414068962433      -0.78861593149909       3.31216597138552
O        -1.51743939106309      -0.35518055278882       3.68116872853962
H         0.16731048663173      -2.01479413199244       5.67151585926269
H         0.69770603990310      -0.34746692753458       5.92938172252970
H        -1.04206105172282      -0.77028459759475       6.13144156408151
