41
C11H21F6N2P optimized with ADF in AMS.
N        -1.05360035516745       1.52697021400797       0.21809243218641
N        -2.24179313654724       0.05215870102082       1.28116064054786
C         1.35908761504724       1.97780201308609      -0.22929849381389
C         1.91885386051032       0.57068278423063      -0.41453401840793
C        -0.08273824290306       2.13574778543748      -0.70439767859122
C         3.35807621414943       0.45597447191951       0.08437641862266
C         3.92994107623241      -0.94906850796979      -0.08975029845083
C        -1.41393111093408       0.23726219706940       0.24697968272325
C        -1.64847905377237       2.17292352753181       1.28247215038986
C        -2.39626185764935       1.24593726905439       1.94567550350246
C        -2.85737189331932      -1.23044966378618       1.65382792336071
C         5.35482359444593      -1.07029148699366       0.44478145019158
C        -4.16321443767932      -1.46554501488217       0.91247370385054
H         1.96790848164494       2.70293268091076      -0.79929794617047
H         1.41964390300060       2.26027157645083       0.83545939600289
H         1.87141922844224       0.29535559990482      -1.48713692342757
H         1.31051321976089      -0.15342480275462       0.15138813811626
H        -0.36991330600009       3.19380298440795      -0.79129286222702
H        -0.23152757832103       1.66809633290429      -1.69076601940795
H         3.37554137635930       0.71626094198992       1.15714524058902
H         3.99703874622102       1.18948698385924      -0.44433743899538
H         3.90544284929636      -1.22478786082995      -1.16104882356408
H         3.27557721601544      -1.65835541881996       0.44509638986650
H        -1.06117691064229      -0.53357561551997      -0.42425416491838
H        -1.45664672858029       3.21630347390468       1.49630519260659
H        -2.97950542834522       1.32066203314626       2.85398086354438
H        -2.10284233103596      -2.00488006043623       1.45987158963726
H        -2.98916847867729      -1.20020835419683       2.74304051020781
H         5.38180640413364      -0.83637677093066       1.52102612802717
H         6.03511712416107      -0.37371812056027      -0.07219664256851
H         5.74833037459305      -2.08973399513209       0.31172645188850
H        -4.89378173030575      -0.67194001604391       1.12897590632256
H        -4.59436289475175      -2.42631089139216       1.23118361564083
H        -4.00504169595341      -1.50665117931329      -0.17572569521770
P         0.73337362809327      -0.87802202685161       3.26368681981917
F         1.22136203347199      -0.20848224959148       4.67398757181317
F         0.76539191970713      -2.38574888671463       3.90237069392456
F        -0.86355062655442      -0.71416024767926       3.72719599689584
F         0.21062060165687      -1.53347904657042       1.79402953944797
F         0.64550712263418       0.63790984843346       2.56250671344606
F         2.28939638056233      -1.02273525440120       2.74998827828906
