31
C9H20ClN optimized with ADF in AMS.
N         0.19912088002914      -0.18937511218073      -0.25022181740215
C        -0.74139392975968       0.56906287060645      -1.17934040965747
C        -0.53642092078386      -1.37960389360604       0.32556119041038
C        -2.02242238201391       0.99186869943632      -0.48844217579397
C        -1.84111760164564      -1.01005781592785       1.01874971707946
C         0.69089647271689       0.68400439257285       0.89269307225289
C         1.36260037493773      -0.66750666887777      -1.11354910410231
C        -2.76373957676225      -0.21080501078416       0.09821133367300
C         1.48993841686566       1.90212129042098       0.48842302877550
C         2.47363282662430      -1.35951192160996      -0.35504912713189
H        -0.96571557494871      -0.14301166784446      -1.99108414034075
H        -0.14183625420989       1.38695586236878      -1.64606534315872
H         0.15075036527331      -1.89176908076003       1.01314283879414
H        -0.73437996592037      -2.04446023503219      -0.53062018432408
H        -2.64161094137336       1.50258806559514      -1.24468496227988
H        -1.81989267619090       1.74449637379045       0.29284489625420
H        -1.63780052532025      -0.44451249588163       1.94376940828214
H        -2.31950099289170      -1.95262720339692       1.33532244066678
H        -0.20167213569962       0.98065730003912       1.45611503901757
H         1.27653479187053       0.01184649887276       1.53867480681567
H         0.90230856936234      -1.34963106965014      -1.84527224757075
H         1.70563121083831       0.23453613755933      -1.68174791652613
H        -3.66585616451544       0.10566366559091       0.64666576332856
H        -3.10083164810765      -0.86216870020765      -0.72958094156662
H         1.77674286037097       2.42980639704678       1.41211465085943
H         2.39625782109027       1.65500448141940      -0.07906538064366
H         0.92615716543205       2.58784125032416      -0.15839121044316
H         3.20167321229580      -1.71401950439188      -1.10073500096757
H         3.01416714030019      -0.67653338480147       0.31471771468665
H         2.14243007389179      -2.23915385052941       0.21784928240271
Cl        1.61503148854394       2.15511345743886      -2.82037288598999
