40
C12H26ClN optimized with DFTB in AMS.
N        -1.39646024544432      -0.16856756853431       0.30210688586377
C        -1.95150591108039       1.20187546768009       0.07564347790416
C        -2.45059152702605      -1.04317046412837       0.92427410702058
C        -0.26560991396345      -0.10161923612892       1.30033450101643
C        -3.22624953540001       1.19101815802169      -0.76192575251548
C        -3.73462901458902      -1.09478506356160       0.11106835273861
C        -4.29471348962885       0.30794129843134      -0.11867498072608
C        -0.91173457652322      -0.78013972195235      -0.96607729166914
C         0.98383648786993       0.65059798022000       0.82810181520198
C         2.13967668053454      -0.30921319847312       0.51230318448385
C         3.35887457616352       0.45310102920735      -0.01275335925162
C         4.50748836925588      -0.50614128151444      -0.34039942907379
C         5.73522761134276       0.24647524579073      -0.85000291324720
H        -1.18297475986842       1.80060495045639      -0.41699494867683
H        -2.15631133748033       1.63116541904066       1.06072308361006
H        -2.65443012360409      -0.63485757605487       1.91795782227795
H        -2.00614605411230      -2.04075452057925       1.02453493993957
H        -0.67840071032605       0.36542245502020       2.19761748347520
H        -0.00943933541988      -1.14420592355493       1.52435873811638
H        -3.58429328718028       2.22181552197666      -0.83058132986592
H        -3.01214832363009       0.84539761065514      -1.77675475456175
H        -3.56812327834950      -1.59552617673189      -0.84586718473871
H        -4.45356808828386      -1.69382796929726       0.67555886163487
H        -4.60239168972126       0.74401162380083       0.83746089817802
H        -5.17156000089344       0.25925323697131      -0.76858860990769
H        -0.16614345258582      -0.13057834791512      -1.41695415085104
H        -0.48071355272103      -1.75330672487640      -0.71614346963903
H        -1.74257078461091      -0.90853951978866      -1.65387665586759
H         0.77406546393795       1.27397650469710      -0.04523481074890
H         1.29529016914272       1.32566737315165       1.63165994674421
H         2.40880672312921      -0.85386304201627       1.42191464758819
H         1.82103025593401      -1.04626295944859      -0.22954995169330
H         3.68949264448374       1.17780523604368       0.73986629861492
H         3.08071906037810       1.01225149413849      -0.91361468405243
H         4.17700154196823      -1.22147664683427      -1.10053836797654
H         4.77453121593635      -1.07257043437435       0.55765365356163
H         5.49329843352438       0.80676258865970      -1.75455921360965
H         6.09615205910196       0.94656814558285      -0.09497822823646
H         6.53506102250557      -0.45722028476056      -1.08132407208261
Cl       -0.14689633156626      -3.30269761652035       0.87654102322136
