37
C9H13F6N3O4S2 optimized with ForceField in AMS.
N         0.06862720733685      -0.63623022618170      -0.44430277742132
N        -1.99059665660958       0.12619599098741      -0.09719807754297
C         1.44390013529024      -0.73478508202562      -0.93051299804946
C         2.44581513666937      -0.40370683770512       0.18117026658426
C        -0.83367685129574       0.31343493950817      -0.76108455150153
C        -0.53881960351586      -1.44982561969763       0.44316723174446
C        -1.81841513453043      -0.97723915263808       0.65651526659678
C         2.28259367264207       1.02678607636909       0.69277630921174
C        -3.17862252972427       0.96932925618403      -0.14397067904700
H         1.59891525171498      -0.04098392569367      -1.78613163697660
H         1.63029477424508      -1.76700547417086      -1.29826702545346
H         2.32318765798897      -1.11505020486775       1.02593288520725
H         3.47339383592646      -0.52506797491516      -0.22024149147142
H        -0.64371203450381       1.13429771190168      -1.44143546410013
H        -0.08146347025450      -2.31242153578082       0.91042652494290
H        -2.56064910256211      -1.39710477907346       1.32297042623471
H         1.29424062836223       1.15235947318494       1.18385909010905
H         2.37057727446672       1.75115619849838      -0.14488434927930
H         3.07474399163936       1.24641487020587       1.43871180791252
H        -3.00510755920277       1.85109599591531      -0.79729106536198
H        -4.03482625462004       0.38701892171836      -0.54390721082787
H        -3.42394229265689       1.32605006787730       0.87868589878454
N         7.14842262706649      -1.60181533979781       1.22628996095578
S         8.13162811302478      -1.80548596667288       2.52210850150478
S         7.37248542276729      -0.41060976483481       0.12219841166088
C         7.45859365359046      -0.91693786552174       3.91100520968760
C         8.21954462204397      -1.08041935593097      -1.29346414661162
O         8.19845098471082      -3.26565633610068       2.86850362843006
O         9.51464248124266      -1.29672678980252       2.22276714649068
O         8.18064226509337       0.71428512851760       0.70733652697942
O         6.03639128810349       0.11198655728636      -0.32064245195509
F         8.27193730759131      -1.09461841613698       5.01373447364042
F         6.19352088428157      -1.39498850878724       4.19415468129066
F         7.38173788358358       0.42942805844904       3.61146097928837
F         8.40967407695843      -0.08578123058409      -2.23351089257547
F         7.46145013582552      -2.09412800954487      -1.84764821125822
F         9.44585520560990      -1.58557347593910      -0.90676708602342
