36
C10H23NO2 optimized with DFTB in AMS.
N         0.01870096855923       0.25448657567698       0.36094098995054
C        -0.84144855664676       0.42035617126059       1.59460735974558
C        -0.80732023569090      -0.05831122650065      -0.85254987410514
C         0.97869614768480      -0.88206059990089       0.60727528125262
C         0.75902457810045       1.54585414605224       0.12469293173243
C        -1.84412023654166      -0.69419128328667       1.84540284893611
C        -1.89975005683815       0.95433964159115      -1.16659165502731
C         1.93327996377569      -1.18078199619861      -0.53602810647939
C         1.83998572430274       1.86755847160195       1.14763247866781
H        -0.14318749249762       0.46295491553804       2.43879762587577
H        -1.35810682987622       1.37888870864424       1.50103613852159
H        -0.12246240658723      -0.11734975331461      -1.70117973538572
H        -1.24530966035585      -1.04613546589072      -0.69499911681890
H         1.53075570340187      -0.62080641933601       1.51355166267984
H         0.37993433976560      -1.76411822608453       0.83465065609498
H         1.19593463418478       1.49170378374407      -0.87621683491016
H         0.01056619586907       2.34167852220575       0.12743917852421
H        -2.36951504957845      -0.44153150112579       2.76613537757570
H        -2.57847450593972      -0.79706238959434       1.04712539369832
H        -1.33630061151197      -1.64360816153812       2.00413878964494
H        -2.44064851332887       0.59514819012516      -2.04225239062490
H        -2.60885040057545       1.05732618859323      -0.34807596033791
H        -1.48584422310577       1.93355917319665      -1.40134624838209
H         2.62873888073606      -1.94028814902849      -0.17863246517327
H         1.42102475424461      -1.57995030774129      -1.41144568711424
H         2.51179725299025      -0.30702111811366      -0.83247456785994
H         2.16311484932948       2.89375620640917       0.97191412544235
H         1.47265076892403       1.78184213040666       2.16749307282615
H         2.70100164109693       1.21159720296552       1.04142979939690
C         1.55215231308866      -1.57622814918249       5.30244363416297
C         1.13744377772281      -1.17016308487023       3.86968004004028
O         0.50213101662765      -2.00451109238232       3.19784114138034
O         1.47810855649529      -0.01790670775733       3.50214955841633
H         1.04342144569622      -0.92522251054164       6.01260626840903
H         1.28432988682339      -2.61283846542666       5.49640580078313
H         2.62663972215499      -1.44039519789635       5.41644847516101
