38
C10H20F3NO3S optimized with ForceField in AMS.
C         2.69165592486986       0.33342086423630       1.56054847541359
C         1.64483292774221       1.27489240455623       0.98238206813934
H         1.40280586860356      -0.84594618749969      -0.89421395709459
H         0.40045935254643      -1.69975198853085       0.32717891205364
H         3.16533821612265      -1.46912438192018       0.43016375565156
H         2.10940662843948      -1.72700932502067       1.87848922642382
H         2.64711471692334       0.34500067820843       2.67195805552070
H         3.71165045672904       0.62898525987072       1.23450528561237
H         1.36246283837594       2.05990035244708       1.72159065152467
H         2.11250856622779       1.79945791665335       0.11550470343721
H        -1.21971487181491      -0.47798488991961       1.48899514678395
C        -0.44219503924508       0.28675988971183       1.70247501253976
H         0.09944828252049      -0.05557824425707       2.61216472944903
H        -0.95076874885960       1.24523191992358       1.94827544040399
C        -0.18856356493095       1.14500962988917      -0.60099367863828
H        -0.30957486967662       2.22604917508763      -0.35654700545603
H         0.46054999813005       1.12079604221904      -1.50617028562510
H        -2.31145082599553       0.73788343781738      -0.14543391219328
H        -2.98805297158237      -2.10245820847147      -2.62663454644133
C        -1.63887189804858      -0.77628782860182      -1.56803419283496
H        -0.82365758954055      -0.91113179416793      -2.31114048302908
H        -1.51678982887915      -1.51537891241241      -0.75286668238947
C        -2.97755397279337      -1.05987416387090      -2.24479490440464
H        -3.13523100034359      -0.36810784895531      -3.09954137762259
N         0.48281871599889       0.45865905536715       0.55124175445400
C         1.08814754070745      -0.84136466031498       0.17443171928266
C         2.33341996293150      -1.04117437767934       1.03172784398094
H        -3.80891205336356      -0.94019805642471      -1.51728262768339
C        -1.60171397754702       0.64630197017604      -0.99420324141055
H        -1.97379082585993       1.34363112031427      -1.77750897529675
S         5.82830893492057       4.60349131372923       2.55969381730893
O         6.41153966116953       5.58619534913390       3.58517768033500
O         6.23784965369488       5.21969782080186       1.21431836510187
O         4.31999338419771       4.88299759722580       2.62660378943159
C         6.30565237423348       2.86844395661119       2.79226004595673
F         5.83283065346687       2.41790303311082       4.00935213345890
F         7.68216757828290       2.76000977738039       2.76486791879906
F         5.76670533554619       2.10341557797556       1.77782216315675
