52
C14H23F6N3O4S2 optimized with DFTB in AMS.
N         1.41651904908866       2.20129185712093      -0.07554110629446
N         0.02588625865541       1.06169713915225      -1.25518276596006
C         2.66335059076741       2.69824292538573       0.49864799559194
C         2.95475882095076       1.99620621567799       1.82821111106351
C        -0.51797824666687       0.09602768004534      -2.20583816963785
C         3.19202828415403       0.49676446769489       1.63537533506234
C        -0.83258276818628      -1.22927858200576      -1.50699239252737
C         1.31917850764527       1.26127435707844      -1.01267242313674
C         0.16120614985154       2.59355987607435       0.30422028993704
C        -0.71754267192331       1.87302761351850      -0.44117569288358
C         3.49938693141228      -0.20464738244250       2.96081868000910
C         0.43097511115493      -1.91486290461715      -0.98009018409640
C         3.72892690553147      -1.69950209151281       2.74438968503740
C         0.11076776316409      -3.26976832113523      -0.35430124244171
H         2.55579444209625       3.77553016079439       0.64849939718998
H         3.46080140609443       2.50790807351722      -0.22255747669928
H         3.84833556002177       2.46021374187299       2.25536333923294
H         2.12065398766194       2.16670727313987       2.51667301648393
H        -1.42504427891190       0.52844805803183      -2.63540806586310
H         0.22484359464416      -0.04924318280172      -2.99304593796494
H         4.02442494151228       0.35395100463096       0.94051076402440
H         2.30228588480672       0.04297165975662       1.18564635592106
H        -1.32399092267063      -1.87500431783769      -2.24045681209433
H        -1.53673774666684      -1.05030953474862      -0.68764725930532
H         2.14307346843137       0.77407058781838      -1.51015191142673
H        -0.00069355606495       3.34806348991359       1.05397539518105
H        -1.79317082014912       1.87836520421990      -0.46622899634018
H         2.66415104828529      -0.05738672094462       3.65461028599661
H         4.39232938567314       0.24078735102890       3.41110820422774
H         1.13926504240590      -2.04692850530906      -1.80275555257996
H         0.90553852274467      -1.27424812652091      -0.22967898085833
H         4.56793874195435      -1.86099244953113       2.06742541327630
H         2.84103452647941      -2.16324188757952       2.31204704827635
H         3.94842440923485      -2.18561716839720       3.69501080745019
H        -0.57904819325100      -3.15386661336287       0.48320979602314
H         1.02802234674731      -3.73080935901888       0.01118685865646
H        -0.34325683895807      -3.93432386119714      -1.09024106378487
N         4.87624615685269      -0.23351750075153      -3.73580760227824
S         5.12292301999729      -0.00579127871416      -2.17193467046067
S         3.36761376421684      -0.05738326956698      -4.23546945549528
C         4.60534230007910      -1.59563295637086      -1.30530294534946
C         3.07213181458825       1.79780136466509      -4.41962937574187
O         6.53623132866737       0.08121958756541      -1.94619892088606
O         4.27136580041075       1.00264511426695      -1.54788446014872
O         2.34318767878621      -0.46316322326486      -3.27816944554144
O         3.27226002400190      -0.56871702125541      -5.57172350024369
F         5.45219876829708      -1.86420969641954      -0.32314556717228
F         4.57664715222937      -2.61624192717066      -2.14108896028546
F         3.39234850048752      -1.44866202121107      -0.77097245857531
F         2.51352209470991       2.05256711028893      -5.58986003652302
F         4.19793574198424       2.47917154667760      -4.32023193110175
F         2.23719448747084       2.22006673765081      -3.46384154024305
