37
C11H20F3NO2 optimized with ADF in AMS.
N         0.28113378222600      -0.32327253675546      -0.21629001309593
C        -0.69403926353165       0.22187524724522      -1.25197560991902
C        -0.35520169828486      -1.52850594981749       0.46650194336329
C        -2.05488969353073       0.56449493621347      -0.67164290789769
C        -1.72464501709458      -1.22819028865832       1.05912339865033
C         0.62546427191556       0.71525483517743       0.83042019063291
C         1.52109314498513      -0.77427329261888      -0.98031645861543
C        -2.68205072209261      -0.64661982148574       0.01952503343713
C         1.34725643252582       1.94153085773214       0.30887901394555
C         2.64002839403123      -1.33532586980952      -0.12984897698714
H        -0.79000994629719      -0.57081121803424      -2.00697239185010
H        -0.20654146175019       1.08734573526797      -1.72125563459817
H         0.35073649315610      -1.86033573156350       1.24001025544809
H        -0.43164988626911      -2.30380627584440      -0.30836559408782
H        -2.68344375823721       0.89029013644059      -1.51738610959228
H        -1.99028097695368       1.42517674601196       0.01726656051501
H        -1.63946301647458      -0.55950189840750       1.93310685083901
H        -2.11323946411220      -2.18738950105337       1.44103697893821
H        -0.31959488327064       1.00051468033485       1.30684515960251
H         1.23078378354750       0.19288945882866       1.58508224733180
H         1.16773778866613      -1.52846372294708      -1.69512990766296
H         1.85274368528460       0.10066372448272      -1.55694504856357
H        -3.63368123484673      -0.36443931861465       0.49593506918486
H        -2.90585434285608      -1.41589661768171      -0.73680479341239
H         1.51003622201999       2.62353216799659       1.15696266548361
H         2.33222588105939       1.70509972709680      -0.11597998291662
H         0.75823245667694       2.49026694720019      -0.43901519493316
H         3.44814956783681      -1.63128568069236      -0.81601267239155
H         3.06055872792004      -0.60803855114433       0.57908604107245
H         2.33931235985916      -2.24341538639043       0.40973244515513
C        -0.95483683647328      -4.36703698715698      -4.06936030568369
O        -2.14690246470541      -4.71638842589776      -4.01859162728349
O         0.05139560905761      -4.68317477422400      -4.73105480898411
C        -0.58881231770187      -3.22496809756340      -3.01612702604295
F         0.32300954890448      -3.64080699712981      -2.04496585109581
F        -1.65628749289916      -2.71537745901657      -2.27688181685276
F        -0.00493153089074      -2.09626265762107      -3.58261157303324
