41
C11H24BF4N optimized with ForceField in AMS.
N        -0.83277272525149      -0.21158310633489       0.02696785610104
C        -1.16257863726725      -1.25788019594665      -0.98997101234163
C        -1.96746582824062      -0.24692924532214       1.00062863344069
C         0.44143307611138      -0.56165965334829       0.73633962483607
C        -2.58486889610160      -1.72740431474261      -0.74838854893892
C        -2.79850282929797      -1.48321709540864       0.71827055893298
C        -0.76776322959204       1.12895908302862      -0.64117830064845
C         1.70699158370814      -0.52777740630258      -0.15470547238309
C        -0.41282128315705       2.30128528859351       0.30424985269729
C         2.92243290990305      -1.06354265251779       0.61245003461900
C        -0.54387280837245       3.63900777597038      -0.41779085531924
C         4.18729468516220      -1.01000795532396      -0.23888003373767
H        -1.05904695460625      -0.90129557832737      -2.04017399000935
H        -0.50756533800903      -2.15456362025122      -0.90137895521251
H        -1.63731008215119      -0.24996507781056       2.06460296016334
H        -2.64670858151027       0.62932182912753       0.88919081030480
H         0.35031084039714      -1.58002877068626       1.18189394886472
H         0.60794843681474       0.11996883882668       1.59961226803686
H        -3.29357412570443      -1.10832670344781      -1.34242620037990
H        -2.71803725816776      -2.80066201346485      -1.00683525027780
H        -2.40905869589687      -2.34339904183899       1.30689217606064
H        -3.87355884391412      -1.32376543069996       0.95369721131023
H        -0.02900534016530       1.11634948818632      -1.47280309886725
H        -1.74758390192690       1.35096135886044      -1.12558565249467
H         1.55966066138932      -1.14014136874925      -1.06880898580277
H         1.92681911967274       0.51480856403393      -0.46554463860373
H        -1.08084635208813       2.31479244764279       1.19039372135129
H         0.63422336667306       2.21026235504493       0.66048837008389
H         3.08209107402670      -0.45552801069833       1.52940605985236
H         2.73918683681561      -2.11711319415311       0.91632470762174
H         0.12137834086311       3.66272079537267      -1.30697419163130
H        -1.59310573024402       3.80130273197426      -0.74385246717072
H        -0.25312271733152       4.46328806200808       0.26723025109339
H         5.04705790134830      -1.39546601349000       0.34985992743544
H         4.06868036745938      -1.63890858265588      -1.14667981354054
H         4.40633016860487       0.03619665673034      -0.54187406487351
B         3.93271549094319       4.58210674797727      -0.96539135356354
F         4.48743215822524       5.86862435690824      -0.73231943962771
F         2.56692296748377       4.58063464753360      -0.58000439959202
F         4.64014783189164       3.61535049345083      -0.20263815806585
F         4.03594926320271       4.26470651545071      -2.34587855382362
