40
C12H25NO2 optimized with ForceField in AMS.
N        -1.43529421883676       0.38585792168010      -0.07415096386719
C        -1.72519801755337      -0.90418784079933      -0.76642430347821
C        -2.52737039701706       0.55449995928191       0.92164909177569
C        -0.12175355707650       0.34849741942279       0.63830782915964
C        -3.03694206191035      -1.45875747520624      -0.22373260212415
C        -3.69630923196012      -0.28994294417889       0.46020664165956
C        -1.48371627098722       1.51785061340739      -1.03637760838605
C         1.11170593285840       0.29640579502493      -0.29339966114982
C         2.37224098952197      -0.08109930210850       0.49521542648485
C         3.61549751788336      -0.06192982971474      -0.40083522567934
C         4.86372275635431      -0.45227096449051       0.38575586902159
H        -0.93029768843991      -1.66737504828270      -0.60758977986834
H        -1.82238625411190      -0.77734236546393      -1.86978379417218
H        -2.83878848728474       1.61676781804363       1.05300458888175
H        -2.22803818410085       0.18197694226573       1.92990346433064
H        -0.09410882684532      -0.53720389053663       1.31560132544660
H        -0.01900547410635       1.24694838607925       1.28987195871304
H        -2.82622135686284      -2.25499063720087       0.52515191211843
H        -3.67886018805443      -1.87396430545369      -1.03069273744026
H        -4.31064484360134       0.27968932107233      -0.27122081277117
H        -4.33329429444388      -0.61628648259028       1.31117963614917
H        -0.78978753486698       1.35638394019367      -1.88962531492206
H        -2.50400428667793       1.63261924782680      -1.46623145050675
H        -1.20873392629291       2.47489660686314      -0.53896453376667
H         0.96173297938978      -0.44330374341096      -1.10768052229892
H         1.26612748253420       1.29646524500714      -0.75382098648879
H         2.24448336156372      -1.10086479666507       0.92161721464586
H         2.51153197954178       0.63755402598313       1.33274795285389
H         3.75913927501881       0.95763969733465      -0.82062820748417
H         3.48266942676966      -0.77539275385050      -1.24319931750283
H         5.02889070492162       0.25698968338096       1.22478290641137
H         5.74958479150224      -0.42378706395551      -0.28302838725160
H         4.75788767354113      -1.48118855266841       0.79121587000686
C        -4.45475253493362       5.54126714234858      -2.86872698217527
C        -3.58473100428967       5.41571818629049      -1.65794669151371
O        -3.54988191141657       4.36455920567521      -1.03914478066383
O        -2.90858388122533       6.36105902079607      -1.28512046890307
H        -4.12631016006662       4.81430742178634      -3.64100073284510
H        -5.50977807004420       5.33022971953556      -2.59444920197076
H        -4.39361458179422       6.56700788787696      -3.29184388642871
