46
C12H23F2N3O4S2 optimized with ADF in AMS.
N         0.91706002363888       2.24566660746027      -0.10738372287631
N        -0.53850049050851       0.97345435794958      -1.09127323600799
C         2.19444778790313       2.90381504952446       0.22226158269438
C         2.77536942520927       2.35061082092299       1.51926410622071
C        -1.15724332038377       0.03039530682129      -2.03949490789248
C         2.98155083518643       0.83858193185263       1.48998939544751
C        -1.48813213741918      -1.29758860297639      -1.36418289610935
C         0.69833123052636       1.48251385478834      -1.18641526612017
C        -0.20222360930083       2.21961244640862       0.69796257731603
C        -1.11882020563178       1.42102873050155       0.08003573914774
C         3.58215467275893       0.30248605948497       2.78744279003512
C        -0.25444457072245      -2.04101828515453      -0.86028392590545
C         3.81358745463451      -1.20586694577824       2.73757179123235
C        -0.60836605331704      -3.33508090409160      -0.13563979827068
H         1.99977697244492       3.98599433537316       0.28266112671271
H         2.86164291535526       2.71339418672133      -0.62967723927714
H         3.74328331701647       2.85967074761869       1.67377052232618
H         2.13647664786992       2.63530366787622       2.37610184517916
H        -2.05707353835652       0.51855084929419      -2.44657011867170
H        -0.43119247952191      -0.11317441679568      -2.85185173438554
H         3.62772675058306       0.57369137862477       0.63728248679111
H         2.01617982208169       0.33136771104559       1.30676403400813
H        -2.02653769760789      -1.91345593281538      -2.10690453446183
H        -2.20036793895019      -1.12880967868223      -0.53450372936254
H         1.41622715489745       1.30909622667244      -1.98155768591859
H        -0.24902867854197       2.76399080811432       1.63205935361571
H        -2.12315681480108       1.13880024529631       0.36894284488318
H         2.91432893261598       0.55299547491457       3.63338781940499
H         4.53985034598236       0.81844267333829       2.98427348836373
H         0.41086558019645      -2.25763215918701      -1.71188732698494
H         0.32796462655786      -1.38720033294078      -0.18920693328959
H         4.50740741780678      -1.46610538252825       1.92289399707774
H         2.86942865784836      -1.74302305711065       2.55134726834521
H         4.23741791698554      -1.58033637668200       3.68125148620848
H        -1.23239335535136      -3.13966437892624       0.75202581245543
H         0.30189152509626      -3.85474172277768       0.19745088074642
H        -1.16475594717491      -4.02108298398132      -0.79423806364210
N         4.33024581911356      -0.17837834356549      -3.33400801572296
S         3.07088215791772      -0.99042477840811      -2.78713818570555
S         4.56921616383312       1.33045811467170      -2.84148942003787
F         1.77713840432505      -0.32118430386221      -3.66110996734795
F         5.12997244988929       1.14156398323031      -1.28504922478698
O         3.12560714353788      -2.35334715516438      -3.26396798473357
O         2.67348028919416      -0.70439999583182      -1.41216471268391
O         3.35035487264863       2.11921614174285      -2.64655329378799
O         5.68641493513409       1.89019852501058      -3.56116901932883
