58
C16H22F18NP optimized with DFTB in AMS.
N        -0.61390092165076      -0.88312292952195      -0.56838532501257
C        -1.82311607069986      -1.28137862080393      -1.38871847100533
C        -1.10565384675101       0.11408795126988       0.45594576671938
C         0.40002354859385      -0.24025905658669      -1.47453465654487
C        -2.90568308365670      -0.26980252312542      -1.05223975218402
C        -2.62629565466994       0.05131088481652       0.41154116663294
C        -0.04626754273668      -2.08067831872161       0.14446776401497
C         1.68545866021844       0.18936640812450      -0.77391872903125
C         0.49050620807513      -3.16052451440782      -0.78039237400106
C         2.54246484567040       1.01122575682662      -1.74687718263639
C         3.85763911418433       1.43279853307770      -1.09738849624179
H        -2.12551783127152      -2.28501727072366      -1.08674243980182
H        -1.56027035951117      -1.28919056382495      -2.44378532879678
H        -0.69198196730971      -0.13032978029279       1.43400553232410
H        -0.75893777073859       1.10580530562269       0.16092116514451
H         0.62493087266521      -0.95711803034883      -2.26249358712562
H        -0.09596186958675       0.62093599294397      -1.92843667542281
H        -2.80218298660716       0.62691588642248      -1.66813837851507
H        -3.89838659408958      -0.69264343853861      -1.20692118648784
H        -2.99991105041599      -0.74608895308407       1.05905766597474
H        -3.06544645893115       0.99829503502923       0.72634919192690
H         0.74702665924131      -1.71791365801471       0.80224777529253
H        -0.85399620983744      -2.47820870060224       0.76525422900926
H         1.46295484980038       0.78986277704955       0.11361537453774
H         2.25389453336586      -0.68851280516762      -0.45495588810145
H         0.79021488596953      -4.00783699794181      -0.16455801423867
H         1.36038796234130      -2.82014752421996      -1.33831273138007
H        -0.26456384355265      -3.49822663894834      -1.48516010955631
H         2.75060449117313       0.41204904367990      -2.63693466874547
H         1.98407657436346       1.89905558171376      -2.06072451508872
H         4.43416328580294       0.55658227877010      -0.79873177550428
H         3.67279121862410       2.04646163422673      -0.21432770593869
H         4.44852169069084       2.01179357569256      -1.80645760306247
P         0.20919960717509      -3.09193794680964      -5.11686034649183
F        -1.23495782104624      -3.89525765621076      -5.29457887240895
F        -0.29395654033681      -2.44420142243265      -3.59130868501692
F         0.76108985616355      -3.70383126923764      -6.55994979822453
C         0.74774099441185      -4.68449427915094      -4.10413416704254
C        -0.70648019578290      -1.54247225890391      -5.99876774603146
C         1.93888059851126      -2.04486662154749      -4.96927572155792
C         1.07355669843363      -5.99467097587280      -4.86696272992697
C        -0.57763843035515      -0.06388947742279      -5.51141968619729
C         3.35949300124201      -2.54661949708809      -4.58263718541356
F        -0.25118128523029      -4.99635910565112      -3.25020613742169
F         1.81547091563264      -4.39575152009301      -3.32772922734384
F        -2.03415984266202      -1.76064414210757      -5.90189437074127
F        -0.40455776904855      -1.52365470141181      -7.30541709901549
F         1.71821930894112      -1.01090678723462      -4.10621870047838
F         2.07115544064508      -1.49595591616830      -6.19174048167337
F         1.33715081405740      -6.97319148722326      -3.99478910279286
F         2.13542604199937      -5.85427178236172      -5.65195316600581
F         0.04369847420343      -6.37789347247490      -5.61164562339961
F        -1.54129932786143       0.66459592175121      -6.07802138921514
F        -0.76362951631456       0.03471379813546      -4.17754290575149
F         0.57637212501256       0.51395594734403      -5.80124299446961
F         3.49977431465858      -2.56494895359695      -3.25237665769175
F         4.28229469997828      -1.71014141484427      -5.06002189814074
F         3.62416168060860      -3.75666534137767      -5.05576767800067
