37
C9H20F6NP optimized with DFTB in AMS.
N         0.80205280561929       0.09254492758850       0.40231034016427
C         0.56563299281771       1.04104154360290      -0.74166441359147
C        -0.01883286363973      -1.14378098264944       0.18243495093887
C        -0.90257643990793       1.37640137678938      -0.95026767764417
C        -1.50348608546924      -0.86041588676591      -0.02393960085730
C         0.44043227083722       0.71180819919738       1.72544476536852
C         2.26366999112682      -0.28048137087559       0.35833671405704
C        -1.72337007525056       0.11034956151538      -1.18255560639264
C         1.26026095575015       1.93442757489408       2.11033687238969
C         2.71777963252822      -1.24852988893161       1.43753253718406
H         0.97186151055163       0.56046637679466      -1.63446075334510
H         1.14146587533027       1.94441226288869      -0.55081166031522
H         0.11861529166962      -1.79549825306561       1.04730974795485
H         0.38938207369933      -1.63914447426412      -0.70284402940661
H        -0.96283338868699       2.02552112958380      -1.82721227422190
H        -1.30046170982241       1.93438913054205      -0.09846136041014
H        -1.94938427829411      -0.46250577134926       0.89157789063198
H        -1.98870003111817      -1.81623094517168      -0.23927471409819
H        -0.61543412780195       0.98318811761820       1.67720180079466
H         0.55218304573606      -0.07086215368224       2.47999336102846
H         2.44472841139285      -0.70970392610489      -0.62933739422003
H         2.83022853576303       0.64641114079379       0.43238529098148
H        -2.78445307617573       0.35850752411528      -1.25814478331056
H        -1.41500071907202      -0.36228407318434      -2.12042636602256
H         0.89083735845245       2.28072593197943       3.07544587088627
H         2.31788809337037       1.70268363890284       2.20849204482224
H         1.14694806018214       2.74007410804055       1.38918250574636
H         3.78206455779327      -1.42267468416910       1.27944808392047
H         2.59118293629481      -0.83474292890142       2.43632809176105
H         2.20484342939111      -2.20776332315514       1.38066952334116
P         3.84882409020921       3.11730343230514      -0.80484715011424
F         5.34017335093527       2.59448583325603      -1.19302370167979
F         3.94226285045197       2.29748840953342       0.65785048193495
F         4.43473171626718       4.45652356887452      -0.09673439754667
F         2.28739694799219       3.56990782444356      -0.37858967377226
F         3.67633088740307       3.87400483930766      -2.23491322657434
F         3.19264249587364       1.71519993130309      -1.47922715168318
