46
C12H23F2N3O4S2 optimized with DFTB in AMS.
N         0.61279005879114       1.33205168998830      -1.08065740414003
N        -1.20365335594207       0.23471626206420      -1.44371771261388
C         2.01398535580014       1.74917140636243      -1.12718034048419
C         2.70516591840937       1.45281412669249       0.20698730371246
C        -2.12776639080321      -0.78046883315199      -1.94401890034446
C         2.80795376126272      -0.05049582425823       0.47739624027374
C        -2.24318758622270      -1.93387640869017      -0.94332400564198
C         0.06436140289570       0.37258061009968      -1.82120912689477
C        -0.32582439678957       1.81493704715640      -0.20722030420215
C        -1.47088630748102       1.11927985574122      -0.43416690451059
C         3.36291013490859      -0.33105678057177       1.87651056715278
C        -0.91046644942642      -2.65726833666381      -0.72875160169094
C         3.49641676162388      -1.83380847457201       2.11731657039145
C        -1.06980492308424      -3.83322681696907       0.23098919666944
H         2.03815679749956       2.82179566093011      -1.34067082172046
H         2.49704935103857       1.20580091703052      -1.94333562940745
H         3.70699213530371       1.88942301232962       0.16125906577870
H         2.15986279521650       1.94974094115566       1.01618578985290
H        -3.10031771099756      -0.30299349418319      -2.09181639007209
H        -1.74891107355549      -1.13300391489505      -2.90527116606108
H         3.46197121653151      -0.50094959699295      -0.27291912861497
H         1.81914230018510      -0.50935072718477       0.37938047471111
H        -2.98471189007935      -2.63322571468531      -1.34056980811573
H        -2.62030106915760      -1.54702547237522       0.00941557168942
H         0.54579079195631      -0.19135732815983      -2.60038490286102
H        -0.10984170612234       2.60512962626718       0.49003698960281
H        -2.43996745812101       1.18627357349563       0.02845981880896
H         2.69544229868543       0.10343999025056       2.62957413144837
H         4.34340702445413       0.14510934917874       1.98338334783598
H        -0.53151590385326      -3.01762031968023      -1.68873971799410
H        -0.17625664921191      -1.95525392365291      -0.32200546119415
H         4.18700203035582      -2.27438613110781       1.39781789862356
H         2.52745792979197      -2.32383492814059       2.01373575892753
H         3.87601128897798      -2.01961355411330       3.12236408363226
H        -1.42520736320373      -3.49199002835689       1.20500407305485
H        -0.10827054042009      -4.32792292036568       0.36451042566135
H        -1.78165792402158      -4.55836340560855      -0.16539947629465
N         2.34725064964855      -1.87694606789548      -4.37079857808850
S         0.93678964388612      -2.55422036220956      -4.62040769355324
S         2.82147978111448      -1.73513905396441      -2.86617920091156
F        -0.08815080083495      -1.28660372376455      -4.23621405189717
F         3.78747239393952      -3.00739634178941      -2.66641953182653
O         0.74898057141723      -2.70842871287282      -6.01912564537966
O         0.50162421029904      -3.57813716397658      -3.72655194525907
O         1.82983772697838      -1.87993197972336      -1.83213966095957
O         3.70060588195668      -0.60797349506721      -2.76750713679365
