56
C16H34BF4N optimized with DFTB in AMS.
N        -0.11724068405465       1.77007301734217       0.26799169740012
C        -0.82048555194995       2.78585995935874      -0.60806461753914
C         0.53554684475491       2.55811542833736       1.38395092463842
C        -1.12141961676407       0.82067528241867       0.86099345788721
C         0.92580625310490       1.05119605948951      -0.52932710456929
C        -0.46992676330988       4.16118920076464      -0.04909856560436
C        -0.20694640152819       3.88074161302048       1.42547533790327
C        -1.81857556210583      -0.07844369531265      -0.15406808833869
C         1.69536890208975       0.00513652376212       0.27639608433339
C        -2.96204624692201      -0.81892942875338       0.55207252668017
C         2.85398282247783      -0.54430719510141      -0.56324867234759
C        -3.67912906742433      -1.77217171958284      -0.40750629258992
C         3.63043265753329      -1.61332752348325       0.21177456677533
C        -4.81990593684605      -2.51112046778724       0.29950240684621
C         4.79221551808090      -2.16663567304780      -0.61930469215276
C        -5.54014758615345      -3.46492831140529      -0.65189003311841
C         5.56762636118962      -3.23321074308949       0.15191995822024
H        -0.50767902604114       2.65261924776933      -1.64410547978160
H        -1.89438883771532       2.60937399729291      -0.53771712675796
H         0.46875773724228       2.00070176690881       2.31756672175337
H         1.58347445892527       2.71451778933079       1.11774184411887
H        -0.60214503840389       0.21698805773628       1.60633577814101
H        -1.84935711535878       1.43946416262479       1.39051510942948
H         0.43013349207863       0.57961315395960      -1.38146497371140
H         1.61260157345302       1.81300808538763      -0.90919474874149
H         0.42696285141302       4.55515315139428      -0.53566097801039
H        -1.29121808711647       4.86159576537308      -0.20425600233609
H        -1.14143384300449       3.77289571213213       1.97918215725936
H         0.39886103807507       4.64990283835859       1.90340880545254
H        -2.22300864354113       0.50653090341832      -0.98586461123135
H        -1.11857568978502      -0.81142672782211      -0.56699342315312
H         2.08910940457328       0.44750455141195       1.19443173182375
H         1.03349737168636      -0.81796108470041       0.55574237087333
H        -2.55727538312636      -1.38378090847488       1.39755225904520
H        -3.67482424336513      -0.08922046695271       0.94836305304391
H         3.52837824524399       0.27493998383945      -0.83528932611836
H         2.45997869559609      -0.97535754876963      -1.49014295138778
H        -4.08005227280452      -1.20451698670727      -1.25483504207049
H        -2.96162534245265      -2.49962874048622      -0.80356309374747
H         4.01750172589362      -1.17910716650744       1.13952612629231
H         2.95215875105631      -2.42940889685579       0.48251719413746
H        -5.53481182387593      -1.78194734956142       0.69471900444042
H        -4.41644715575253      -3.07657393965764       1.14594641462777
H         4.40235448074194      -2.59856345627664      -1.54741505620609
H         5.46820796358352      -1.34823281056676      -0.88959608785782
H        -5.96711401600082      -2.91673390166586      -1.49308794905642
H        -6.34612550357610      -3.97788902854661      -0.12682375396491
H        -4.84768253695273      -4.21290720905133      -1.04104934242530
H         4.91436622095277      -4.06695679104624       0.41257988763599
H         6.38829454433889      -3.61184485644064      -0.45756653152406
H         5.98070538881553      -2.81548503966752       1.07093718309806
B        -1.19787187036170       1.96355205450538       4.11620133040884
F        -0.25740543380018       3.00463343166272       4.13188734673057
F        -0.53504648147947       0.79746143995064       3.62548588754522
F        -2.19158967822221       2.30025137193360       3.14851326919465
F        -1.75609151430579       1.73667106963650       5.34006993190579
