43
C13H28ClN optimized with DFTB in AMS.
N        -0.33718844707809       0.48069263676286      -0.02786780095850
C        -1.29592596893960       0.53910276925298      -1.18628477854931
C        -0.72534126654801       1.53962246763784       0.97067736503407
C         1.01543002382661       0.83086155647887      -0.59548768392038
C        -0.32712729274402      -0.85842898002420       0.64518069369681
C        -2.75111550750945       0.39856963001223      -0.76647513082183
C        -2.17758257003616       1.44377251147216       1.41909635867284
C        -3.11788212649155       1.50687625589955       0.21815263998632
C         2.18042335917628       0.75461603870055       0.38790139338255
C         0.08578430287514      -2.02773642700920      -0.24649042959117
C         3.39810422854022       1.48516295540390      -0.19994155422792
C         0.07892114813659      -3.32152292228630       0.57760957819047
C         3.25001780081147       3.00574309575849      -0.15204208356020
C         0.48780971425753      -4.51929533925789      -0.27690582149802
H        -1.01261878406995      -0.23867809466292      -1.89689835183817
H        -1.14533031775800       1.52284497372028      -1.64720506539295
H        -0.55978127293448       2.50169819039431       0.47134579423699
H        -0.05802635136358       1.45102151778375       1.82975070444437
H         0.90983054199836       1.85177346432498      -0.97691512366439
H         1.19576542459573       0.16486890668903      -1.44219041507282
H        -1.33061016185932      -1.03956043775602       1.03454331709852
H         0.35604158017598      -0.78131662992934       1.49481852579267
H        -2.94763786788478      -0.58550035094640      -0.32858362609371
H        -3.35885933469386       0.48866929006207      -1.67062993661899
H        -2.36334040659172       2.29374132554589       2.08096173113683
H        -2.35693455457879       0.52987679459491       1.99489093939018
H        -3.01450205357157       2.47807046917929      -0.27448119443292
H        -4.15334160787208       1.39071477872226       0.54660049711596
H         2.44848038287939      -0.28885282819791       0.58115537868567
H         1.91991084548862       1.21701418825021       1.34329216606836
H         1.08735677717405      -1.86833308527964      -0.65318683355401
H        -0.60799478193205      -2.13461055546387      -1.08419737667935
H         3.55163346392198       1.15918495420518      -1.23413859826923
H         4.28406943915527       1.19340838599437       0.37332640818357
H        -0.92381621703239      -3.48766190896683       0.98518096756924
H         0.77113569747710      -3.21965491980752       1.42001474806122
H         3.10461916642892       3.34024822338126       0.87614750656965
H         2.40264841326614       3.34272387206643      -0.74851780153120
H         4.15382420330474       3.47210001971290      -0.54381301330257
H         1.49278639569136      -4.37836485859236      -0.67640638332465
H        -0.20339269954892      -4.64782567201396      -1.11067366985504
H         0.47725208474486      -5.42630713962518       0.32713454922219
Cl       -0.36423972778790       3.65170084551304      -1.45114229088116
