28
C8H18ClN optimized with ForceField in AMS.
N        -0.38629794441577       0.39476800420120       0.07074510185669
C        -1.43232734416131       0.67952967399656      -0.95319064204562
C        -0.90473405733479      -0.75951751564576       0.86346759846019
C        -2.70644532828989      -0.01663311178623      -0.51740394352674
C        -2.21010299152134      -1.22085212176230       0.23496837410118
C         0.89921107671909       0.05537656502081      -0.61593050372075
C        -0.22270081055118       1.59137511829024       0.93748913658243
C         2.11172228067220      -0.10955899066400       0.33168496898468
C         3.31075722859610      -0.69957550251121      -0.40604873701494
H        -1.15820503119770       0.27245822585549      -1.95500571057159
H        -1.62064808571893       1.76893289453258      -1.09907809532681
H        -1.11071318558467      -0.48143897804881       1.92356530198773
H        -0.20314824104830      -1.62214230330813       0.89396632833282
H        -3.33884536488702      -0.30675324503617      -1.38493623476006
H        -3.28498402175738       0.64303775438948       0.16667968838503
H        -2.94368609131727      -1.55928114566893       0.99884803266276
H        -2.00905769230039      -2.04929930664443      -0.48100984644518
H         1.15434529039637       0.85004067812893      -1.35460341677162
H         0.77092104368251      -0.88767862917331      -1.19694193113110
H         0.24868509033896       2.42808139051843       0.37446014157871
H        -1.20662249949439       1.94487156195706       1.32006898809033
H         0.40680635121978       1.36668357016625       1.82588826796247
H         2.41351534437190       0.88084456415348       0.73382739477041
H         1.86667540335980      -0.77099789086002       1.18766450153434
H         4.17444750138687      -0.77439441929711       0.28815649349546
H         3.07145925923554      -1.71686400062775      -0.78243468221259
H         3.59611201476586      -0.04952629071066      -1.26044587184968
Cl        6.79523998413534       0.66616185463433      -1.23480266710854
