42
C10H18F6N2O4S2 optimized with ForceField in AMS.
N        -0.36890592280937       0.38243565505143       0.07459377581799
C        -1.42254560927101       0.64814024574639      -0.94542197868048
C        -0.85574529507728      -0.79081279810942       0.85889483694688
C        -2.68351360011742      -0.06579213440194      -0.50315136321287
C        -2.16744293198806      -1.26196456899824       0.24957290445233
C         0.92204872626108       0.08315624833593      -0.61924010316505
C        -0.23530048922896       1.57532602567688       0.95145942568480
C         2.14247885504803      -0.05524598618860       0.32098411939492
C         3.35774870454916      -0.58226250450651      -0.43675719082724
H        -1.14577170367011       0.24214660755696      -1.94699503532914
H        -1.62626144980899       1.73424297997995      -1.09387989690840
H        -1.04263824054597      -0.53300112651927       1.92759945968125
H        -0.14023096342310      -1.64267353208373       0.86218901390871
H        -3.31489305723735      -0.36675631535709      -1.36753765815062
H        -3.26885092868759       0.58746041508153       0.18084497190761
H        -2.88976680701081      -1.59930078364679       1.02428887769532
H        -1.97239712896924      -2.09438716187718      -0.46325420236231
H         1.15162072234130       0.89035122068896      -1.35290849145273
H         0.81766454755601      -0.85924333929927      -1.20658416502061
H         0.21114398595305       2.42960354782938       0.39469587317556
H        -1.22701172192849       1.89737145592329       1.34150631997100
H         0.40409577022465       1.35988490231709       1.83531197280259
H         2.41019892610212       0.93770643504404       0.74051985407833
H         1.92492526278278      -0.74337811013719       1.16361183209622
H         4.23425385373002      -0.62270329353040       0.24381708354128
H         3.16008223439612      -1.60471016501531      -0.82343057685534
H         3.59792764586824       0.08989894148795      -1.28665147941323
N         8.73254046939525       0.88575308551982      -3.20303243800424
S         8.64341553007346       0.09040494498699      -4.63335210485757
S         7.84857682615613       2.22789293838027      -2.88060128943414
C         9.89898758562156       0.71586734346771      -5.73056679147182
C         6.38862858104847       1.76080777000639      -1.97576959967816
O         8.88800132277686      -1.37328168285798      -4.40023896572690
O         7.29010676730994       0.27921723968042      -5.26100690970472
O         7.44726340656262       2.91950858655567      -4.15401524545341
O         8.66411352127226       3.16504400231632      -2.03624463228484
F         9.84866112709738       0.03024444707481      -6.92930161130260
F        11.14324212795033       0.54124780708793      -5.15514076881782
F         9.68782038079868       2.06131121343243      -5.96369627976355
F         5.62956860020978       2.88438122313933      -1.70910862832674
F         6.75335004320549       1.16126911066573      -0.78517163682951
F         5.64458212728296       0.87237836259535      -2.72745332872075
