37
C11H23NO2 optimized with DFTB in AMS.
N         0.66326980357882      -0.09697478180364      -0.77587466462889
C        -0.76274161186914       0.17933557564519      -1.14306026044797
C         0.69572097261551      -1.10687211043908       0.34210213311724
C        -1.59182487769413       0.66487416221453       0.03983067460464
C        -0.15139154783729      -0.70999774418871       1.54270053139873
C         1.39551252064250       1.14381462798437      -0.34319792816852
C         1.31049816191342      -0.70821910221734      -1.99294583518725
C        -1.58926017180992      -0.38460171884797       1.14986565085700
C         1.40639738283350       2.27039070080448      -1.36143438297399
C         2.79174255468871      -1.02472276326874      -1.85197681354747
H        -1.18004916060329      -0.75801977888821      -1.52368421722420
H        -0.76820824160290       0.91305410265081      -1.95154335474725
H         1.74349771463143      -1.19714275042747       0.64964631640724
H         0.34457045076401      -2.05401415495646      -0.07848543748809
H        -2.61086347339683       0.83514893778724      -0.31856623531128
H        -1.20572260759126       1.61554572084881       0.41526677729065
H         0.31034955552338       0.13802160796649       2.05440875847839
H        -0.13740909907735      -1.55564910296121       2.23503963430444
H         0.94694548625594       1.48358833186592       0.58922653946986
H         2.41318342804351       0.82380510498565      -0.10771010394575
H         0.75576730740519      -1.62602370362492      -2.20866268479972
H         1.15127295351441      -0.01423504249442      -2.82267485035013
H        -2.13383237966315      -0.00433045698387       2.01726148432297
H        -2.09842092073500      -1.28846663642819       0.79674067628437
H         2.01827306423156       3.07039693146176      -0.94459725959439
H         1.84903672157351       1.96708182745778      -2.30926074504144
H         0.40976650290797       2.67102387587061      -1.54653670133514
H         3.11076441432199      -1.51677095879216      -2.77113292039065
H         3.38688831118474      -0.12547618375115      -1.71378132937648
H         2.98575594031039      -1.68688680104823      -1.01206574510516
C         4.55359169317562       0.04938935499489       3.05073035625701
C         3.40925617229674       0.09841432651862       2.01305693409921
O         3.60873031974751      -0.51736395159353       0.93648194379908
O         2.39001086977011       0.74769554760255       2.31669362411653
H         5.32283902841374       0.75837120108182       2.74534599885764
H         4.18257108992289       0.32389591049651       4.03619317554169
H         4.98810292771318      -0.94846068932269       3.07392489765706
