57
C15H28F6N2O4S2 optimized with DFTB in AMS.
N         0.65093631276998       0.51948102315017      -0.07839831179810
C         0.17198128931919       0.05558514853169      -1.42261756459825
C        -0.41754575350748       1.36681911617341       0.54829040822998
C         1.86482144374364       1.38204753180860      -0.34876774276572
C         0.99155379620195      -0.62663834706038       0.84906440834983
C        -1.13926888984276      -0.71298467026047      -1.34452496924181
C        -1.78371274192987       0.68906493130877       0.61361246481781
C        -2.22949681096734       0.17905168857725      -0.75511811069578
C         2.45277945976823       2.11441105889413       0.85437853084436
C         1.73223017657466      -1.80106879192363       0.21615709477372
C         3.56527521621816       3.05107123551922       0.35997418805109
C         1.93866116790443      -2.89022055678990       1.27831137365935
C         4.30006541645664       3.68955991660077       1.53535631444385
C         2.61859091686694      -4.11477780200475       0.67090736050658
H         0.96566594343140      -0.54300994070924      -1.87035567730680
H         0.03113477934470       0.95248805793196      -2.03222923834404
H        -0.48466214024867       2.28206677332948      -0.04631381168196
H        -0.08576211312566       1.62085761422907       1.55615007490896
H         1.56189103103873       2.10896074544515      -1.10727714977969
H         2.62267727358631       0.72315461974811      -0.77723533204491
H         0.05271799559023      -0.98470534296673       1.27524856698437
H         1.59539562444751      -0.20741918264765       1.65609138648980
H        -1.02660131115803      -1.61851590172268      -0.74404799908541
H        -1.40891286678347      -1.01438209438861      -2.35972171786574
H        -2.49391729523068       1.43278830015911       0.98449564341956
H        -1.76905030426240      -0.13650203443366       1.32993933617839
H        -2.41443618769426       1.02532176207858      -1.42446629146047
H        -3.15963966986274      -0.38413483800750      -0.65194503306789
H         2.87731722312458       1.40110876976472       1.56326014081385
H         1.69184834707360       2.70505415315808       1.37177934869104
H         2.70012525401830      -1.47714707278087      -0.16702926640976
H         1.15843946096816      -2.22619054512427      -0.61104695027785
H         3.12971958965857       3.82926474832399      -0.27595517716994
H         4.27515489837396       2.47945303429497      -0.24337546577245
H         0.96632239582464      -3.17479152702698       1.69741183551641
H         2.55512626644058      -2.49396380889657       2.08903574549667
H         4.77137432948933       2.92111185633469       2.14815546942212
H         3.61132437964387       4.26184305414235       2.15897905754044
H         5.07443816022796       4.35984467531725       1.16346314892174
H         3.60804105557913      -3.85058403589247       0.29997937797840
H         2.02793526283958      -4.51362604200075      -0.15540498585839
H         2.72595118555689      -4.88884781103242       1.43036951300806
N         4.58832285409292       0.07597510501805      -0.11364502485711
S         5.40042084669274      -0.09093843758953      -1.48848283794492
S         4.98391857215898      -0.83037049394873       1.15044264337136
C         4.43836066928179      -1.38877784668752      -2.43780150113326
C         6.56494898825986      -0.12275379281720       1.87076440903786
O         5.13587079205180       1.10130404274497      -2.25298005165624
O         6.74710325928658      -0.57698478597297      -1.37861594557274
O         5.25317999980912      -2.22034478442570       0.87540120859306
O         3.97781001036870      -0.52627554768127       2.15157131079606
F         4.87352481945227      -1.48647092956487      -3.67927193044138
F         3.15025549703935      -0.99199590094909      -2.47864159170789
F         4.47009738402832      -2.57983444355567      -1.87063109248772
F         6.52890025147289      -0.25504728267698       3.18739432597902
F         6.63854697688169       1.16850414619806       1.57731696343816
F         7.62690235185453      -0.74026312114358       1.40380587446433
