41
C11H22F3NO3S optimized with DFTB in AMS.
N        -0.66277769895018       0.08755352761872       0.94158857581792
C        -1.44867958231721      -0.51869394077386      -0.17438379090153
C        -1.39186549817992      -0.35125283787666       2.17309971101519
C         0.74768053772597      -0.42771958323385       0.99638767711770
C        -2.90857481417963      -0.41343139104778       0.26554233763959
C        -2.87010763334399      -0.30455026273262       1.80015540768391
C        -0.69287910100837       1.57413362582933       0.85171071594159
C         1.62068837244297       0.01060785654304      -0.17340412561211
C         3.04696896390751      -0.50373397322099       0.05635234377949
C         3.96821625184088      -0.10279173601334      -1.09843571771419
C         5.40162505139514      -0.56350843650291      -0.84209515754696
H        -1.14079206261832      -1.56225970380558      -0.27126831432297
H        -1.23562036284113       0.00939932523847      -1.10361267101823
H        -1.11448398627415       0.30384263889273       2.99972398750794
H        -1.07640303243984      -1.37202969013653       2.39878733325490
H         0.68298627155212      -1.51853839662602       1.03627274409974
H         1.16720623955125      -0.06465752170530       1.93499241021794
H        -3.46426893091112      -1.29364784742128      -0.06165724184069
H        -3.38117178713267       0.46780521569456      -0.17285196925517
H        -3.32878699605027       0.62854203194624       2.13232255453413
H        -3.40345537101899      -1.13046850538707       2.27312793495593
H        -0.31360797725078       1.88405455871514      -0.11843525469251
H        -1.71810520128141       1.91569702028024       0.97024079144277
H        -0.06735881796344       1.98039101544172       1.64276527604587
H         1.22185809825933      -0.37555759245037      -1.11711983849812
H         1.65650665069024       1.10034241083261      -0.22666103452794
H         3.03597210492477      -1.59389310780435       0.16233346388896
H         3.42501481698179      -0.07430577690277       0.98861342073970
H         3.95131027661613       0.98594309486327      -1.21251907885311
H         3.60149171933247      -0.54388145889043      -2.03225917930927
H         5.78764462761784      -0.11195037857476       0.07224862705511
H         6.04266361837129      -0.26950729605987      -1.67336346979188
H         5.44254182084396      -1.64869911606680      -0.73740989153901
S         1.88200265366739       2.02559171368971       3.38266985339953
O         2.16369545941557       2.09466958181302       1.95265643048863
O         0.62859375010154       1.32490827191409       3.67281950696908
O         2.09351814326994       3.23895828401134       4.12128283632723
C         3.15529579811213       0.82207281476203       3.99125071926730
F         4.38154674960504       1.16254440451720       3.61673531549104
F         2.89004851593215      -0.38201069044695       3.45448486632406
F         3.13583381100398       0.69111625787667       5.30885547511845
