47
C15H25F3N2O2 optimized with DFTB in AMS.
N         1.72199632615150       2.44829878836172       0.46107059565298
N        -0.33487655506185       2.80135820598201      -0.05716124514005
C         3.13389619773043       2.10585151789496       0.32546064731877
C        -1.54049428611245       2.91456829931487      -0.87578185754612
C         3.35190129022044       0.63332980119297       0.68746856978312
C        -1.88008707350056       1.55548381939928      -1.49318629641894
C         2.59356224997916      -0.30252052568569      -0.25789272688770
C        -2.05458606437163       0.44937743129383      -0.45082285555574
C         0.88470691758216       2.62984548498742      -0.55675024145988
C         1.01956074059617       2.49550824195371       1.63690708212393
C        -0.28106770092919       2.71682733241886       1.30703429474627
C         2.78038587463342      -1.77103241549514       0.13207558384097
C        -2.28381292949829      -0.90438058994355      -1.13093409297445
C         1.99242531601852      -2.68413699943821      -0.80543216849439
C        -2.40083653839332      -2.02926746058919      -0.10447599177150
H         3.71140623295146       2.75657021996296       0.98778131782747
H         3.41879806755362       2.29521188553654      -0.71222858680331
H        -1.33373707350865       3.63107095767585      -1.67490997567161
H        -2.34675760220804       3.28399837709302      -0.23764473401614
H         3.03296208396460       0.46465216210691       1.72119494522573
H         4.42542844837278       0.43275397546783       0.62857261266451
H        -2.80091451853323       1.67619707222633      -2.06993150158673
H        -1.08094614393176       1.28585713527048      -2.18743849422139
H         2.94859028912638      -0.14754184072310      -1.28013575545701
H         1.52706941928323      -0.05576966884374      -0.23663558406779
H        -2.89972917903636       0.68484306302603       0.20618686484031
H        -1.15510278120718       0.38742794259618       0.17227450978705
H         1.11927591430287       2.66557632878202      -1.61436423654140
H         1.49352494300079       2.37492524561932       2.59516517784626
H        -1.15563198016017       2.82504704477599       1.92421574720203
H         2.44180411519688      -1.92302963638210       1.16325964295537
H         3.84379688189332      -2.02885610889769       0.08725558430191
H        -3.19746032981442      -0.86052028016571      -1.73233842756018
H        -1.44725146335930      -1.11284601021649      -1.80536689230881
H         2.31936862546512      -2.54454498405273      -1.83605924327995
H         0.92647369756689      -2.45971148416073      -0.74770898858840
H         2.14436217044665      -3.72734183161135      -0.52811758651627
H        -3.24071354832614      -1.84994820021870       0.56857477492674
H        -1.48863817303981      -2.09977264965824       0.49033494014846
H        -2.55854745096676      -2.98136103862121      -0.61113408695742
C         0.71997735603649       2.33267510919518      -4.23069504206418
O         0.20444538707004       2.96454144393673      -3.30239363332374
O         0.66524942957004       2.37970393394511      -5.43292027178667
C         1.69967386826677       1.14523436929091      -3.61061384001936
F         2.30692766262275       0.32512810391253      -4.46617797231004
F         0.98991541591375       0.35741194554109      -2.75082012643732
F         2.68632481854285       1.68941626154297      -2.82917243452535
