37
C11H18F6NP optimized with ADF in AMS.
N         2.00040026318260       0.28343220599695      -0.85658964055301
C        -1.83130870500420       0.40996717725870      -0.66262204600487
C        -0.40635417186863       0.17070150561406      -0.16111466862330
C        -2.88529600086662      -0.12948054287453       0.30265717179549
C         0.60218331563607       0.68716781945639      -1.17872290405188
C        -4.31524223622750       0.08395101892409      -0.19432333826284
C        -5.36367356169292      -0.45670261039862       0.77483746310515
C         2.30904754189292      -1.03217106698923      -0.85963803591073
C         2.94852262972542       1.22035270741351      -0.63358740135397
C         3.60997892954380      -1.44046656990441      -0.61615852841228
C         4.25964830497829       0.85843264864097      -0.39653170515196
C         4.59936320712197      -0.49390999285615      -0.38618113308084
H        -1.94064271487422      -0.08406929346130      -1.64432771581208
H        -1.99786880749622       1.49231700786745      -0.82272563722793
H        -0.24405140832857       0.65844293063773       0.81765679580505
H        -0.26705783948451      -0.91405014444019      -0.02543240330308
H        -2.71415280640806      -1.21239095880120       0.45381079562312
H        -2.76772361141721       0.35061137899763       1.29362890042457
H         0.59695344666248       1.78532997846965      -1.22629073780027
H         0.39296903846419       0.28305447329797      -2.18211080129475
H        -4.48574010338452       1.16383560636429      -0.36155720427069
H        -4.42999015812345      -0.40473743769233      -1.17889323826835
H        -5.28322881185091       0.03327808138907       1.75867062379523
H        -6.38417227584641      -0.28877310991278       0.39728960778432
H        -5.23593593409481      -1.54006693096190       0.92912808206386
H         1.49397920046017      -1.71494148135870      -1.10386501416473
H         2.61761537900179       2.25557882961383      -0.66717460355730
H         3.83155915937777      -2.50791747065558      -0.64049748332599
H         5.00606038293969       1.63542374794602      -0.23215606245765
H         5.63149450628108      -0.80165447695008      -0.21132611418901
P         0.33907445202439      -2.14276514205191      -3.85765418874028
F         1.71314752146291      -1.24585424939431      -3.45176849039521
F         1.21296223148229      -3.52091673499557      -3.67012513768950
F        -0.04400352240465      -2.20623475552218      -2.19949741380785
F        -1.01943074282993      -2.98494307205525      -4.18723740724602
F        -0.50456807518388      -0.70817280464932      -3.93777444206438
F         0.73590553944936      -2.03671722756275      -5.43564855337605
