44
C12H24F3NO3S optimized with ForceField in AMS.
N         2.02114025157385       0.44686079597327       0.07529270118822
C         2.26918611458183      -0.86355500084966       0.73770879461310
C         3.13166245925957       0.61764917391319      -0.91022336166590
C         0.71100496730975       0.45470783495781      -0.64685147464713
C         3.69984275447543      -1.26784630971886       0.44513369026279
C         3.98171439298167      -0.64276922265686      -0.89421965269927
C         2.07573699121752       1.54699397412581       1.07292263505582
C        -0.52607831791243       0.26197542364669       0.26114763545891
C        -1.79900617045890       0.09966577803059      -0.57953568837362
C        -3.02677924607192      -0.10599364590295       0.31477512202131
C        -4.30472535581004      -0.22763105914727      -0.52236254376809
C        -5.52627813698366      -0.42604808300993       0.36936990518236
H         1.61295554665660      -1.66398721364817       0.32466501783016
H         2.09570306803962      -0.83617386579073       1.83780035274445
H         3.79308398111666       1.48094431794970      -0.66263022504346
H         2.77342962214494       0.80375771215917      -1.94892569087117
H         0.70946849412762      -0.34966231105095      -1.41923558461688
H         0.58749969006420       1.41787980524908      -1.19397837153994
H         3.81830268609852      -2.37311706614432       0.41299823227913
H         4.37937060201830      -0.83920308291246       1.21432331090138
H         5.06308805918082      -0.41645680675413      -1.01817528382760
H         3.64997252172602      -1.32951125996529      -1.70469158224483
H         1.35399764173768       1.38689022370045       1.90196500959283
H         3.08376301042345       1.61128388566728       1.54109279317382
H         1.85119388266650       2.52665077297019       0.59451856823770
H        -0.40395985033904      -0.63485711038776       0.90412851239227
H        -0.65498264441310       1.15026995746383       0.91479293206113
H        -1.68849654498840      -0.77728777762240      -1.25510053874015
H        -1.94383087349975       1.00984364152604      -1.20269762930766
H        -3.12484272649266       0.75616864870591       1.01094529565970
H        -2.89168431930488      -1.03238629135388       0.91591418766676
H        -4.44704411350345       0.69485079743839      -1.12676032841233
H        -4.21979756819354      -1.09318514168467      -1.21523273123048
H        -5.64870493521310       0.43936229593754       1.05495840992637
H        -6.43474411255352      -0.50964015075486      -0.26023699020311
H        -5.42235490821136      -1.35708630417206       0.96606206963058
S        -8.88518855148292      -1.85472092452611      -2.66501632887551
O        -7.60508268317441      -2.68792502560917      -2.82647001845271
O        -8.37367995441499      -0.54643090437213      -2.04560425878898
O        -9.60226905138738      -2.53781246403981      -1.49118411059628
C        -9.87778398270702      -1.65009726087951      -4.17007623572912
F       -10.30996854575513      -2.88537626509066      -4.61142924458497
F        -9.10974969770765      -1.05441471254624      -5.15143087453519
F       -10.97118888652130      -0.85191440362410      -3.89585110272442
