39
C9H16F6N2O4S2 optimized with DFTB in AMS.
N         0.51663615509541      -0.57456944109335      -0.41796771411839
C         0.61426243827853      -1.98301627398475       0.12661343941627
C        -0.95497544275075      -0.27641012017914      -0.55186054226741
C        -0.81293000674291      -2.49387432011086       0.27906942492177
C        -1.64661294670164      -1.22403127904148       0.41445482519640
C         1.12542521166991       0.41168406090292       0.54177788899827
C         1.16180254003582      -0.46267739037895      -1.75467847100671
C         2.62032773974446       0.23590270489477       0.76263263207679
H         1.13027855052760      -1.95097316294054       1.08544964661886
H         1.20029964476933      -2.58798209520743      -0.55968604283317
H        -1.24976455435324      -0.49915975531545      -1.57953956804733
H        -1.13530247567591       0.77885325433846      -0.34758287241174
H        -0.90368219623068      -3.14606697403794       1.14781735956328
H        -1.11280936070858      -3.05124499306130      -0.61148753012670
H        -2.68932239114351      -1.37638368307562       0.13486794233523
H        -1.60624546508579      -0.83629203130578       1.43565714946538
H         0.92480293308421       1.40888905307487       0.13988730394196
H         0.58292552080492       0.29857123413644       1.48426324858454
H         2.22116332521268      -0.68842362440652      -1.67393337130002
H         0.69532979221503      -1.17791497131279      -2.42802168297520
H         1.02166774258780       0.55134610149932      -2.12526768409329
H         2.90832766790443       0.87324838704152       1.59828933547435
H         2.88215606839477      -0.79174993171910       1.00526390230089
H         3.19046419016332       0.53855503771530      -0.11259943613446
N         3.30011992944744      -2.79219168381223      -2.76413480510134
S         4.03138862405134      -2.53311179005592      -1.36404823921383
S         2.91005959706951      -4.30903482727734      -3.12992664497101
C         5.71555732849370      -3.37167860246460      -1.30631886321994
C         1.18826757642807      -4.57241708190757      -2.42466808610876
O         4.33674393356362      -1.11438224297450      -1.34715203060500
O         3.31965013813150      -3.03809068535110      -0.19713040909031
O         3.72096196946729      -5.32110434907046      -2.50912213529630
O         2.67465584879448      -4.35739164536271      -4.54433400322213
F         6.55116145160704      -2.54957625380888      -0.69045871625289
F         6.15816870534536      -3.59884791384834      -2.52694074650123
F         5.65279024619120      -4.49913768382945      -0.63276048483077
F         0.56255753100282      -5.54243443419354      -3.06148776794728
F         0.46407241865242      -3.44405948876393      -2.57673654463510
F         1.20074963985906      -4.85097963401198      -1.12788464148368
