37
C11H20F3NO2 optimized with DFTB in AMS.
N         0.50930963493711       0.48738313932941       0.18976570458814
C        -0.21021251901053       1.65990335406724      -0.41454757654177
C        -0.29276082251066      -0.75963123925465      -0.01379123968999
C         1.81576029290091       0.35479201610888      -0.56653458804203
C        -1.63781148455617       1.81626354541858       0.09324837101027
C        -1.70669627487309      -0.64345868544829       0.54347621162965
C        -2.44026673795790       0.53128490906577      -0.10280227938635
C         0.74971102326370       0.72286426322867       1.64171455117524
C         2.89312891418178      -0.47754376272918       0.12115834979008
C         4.15027070464006      -0.43664470294068      -0.74833127928141
H        -0.21171886541265       1.50501535473418      -1.49687437108100
H         0.37300846869921       2.55254370729266      -0.18330973814325
H         0.24845727868543      -1.57937509406177       0.46352253629292
H        -0.33664848971092      -0.94480754159388      -1.09082169422378
H         2.19866998797415       1.36395314873012      -0.72897936253697
H         1.56712062210723      -0.07310875605319      -1.54174994348028
H        -2.09667854246917       2.63087635440888      -0.47270160378860
H        -1.64195549494706       2.10569953501557       1.14704512594501
H        -1.68397690869193      -0.52529891161648       1.62986401958675
H        -2.22883445861068      -1.57765208592166       0.32049640242996
H        -3.43012090219766       0.64067764465944       0.34625669148358
H        -2.57043299866523       0.33632505766895      -1.17237040955856
H         1.12751138379776      -0.19196965624136       2.09134109453101
H         1.48267296581108       1.52266558349828       1.75419042911236
H        -0.18101069154106       1.00677211921002       2.12407933049171
H         3.14070093298136      -0.04216836958748       1.09143264087696
H         2.55502885371627      -1.50919238790651       0.26331143758170
H         3.95424481058719      -0.84927088605775      -1.73915555366016
H         4.48404901121933       0.59683485752645      -0.85330225943767
H         4.94130468112069      -1.01729431863370      -0.27542952410940
C         3.19863595555732       3.00120133256567       0.57607161590121
O         3.61341605560101       2.89303525990780      -0.56956067260586
O         3.31235577255531       2.29481031848627       1.57488065329500
C         2.14607406962195       4.23532032915277       0.78481527752176
F         1.13706589107504       3.82962885031611       1.61051393077525
F         1.53269704104977       4.55632597830602      -0.37616568718597
F         2.63839163657101       5.36327742684886       1.30129422753451
