16
C6H8ClN optimized with DFTB in AMS.
N        -0.88402886997814       0.01069863902288      -0.15511629385712
C        -0.14191984497614       1.10504598376749       0.18985107303475
C        -0.39087329690053      -1.28895892996900       0.06507078503770
C        -2.32067577611293       0.12975842359752      -0.37183170775958
C         1.19299698241051       1.00964470015183       0.39257915088323
C         1.07427061057573      -1.36454771898661       0.02779875446963
C         1.82288862716776      -0.26611018111183       0.24430233310320
H        -0.66993534123966       2.05177398690718       0.21089947979305
H        -0.89807873807677      -2.01726640583707      -0.56766164471202
H        -2.85099338472361      -0.47942468952821       0.36423846867108
H        -2.62258614549671       1.17090688518389      -0.27043526646333
H        -2.56907496755878      -0.22202240049393      -1.37608322460334
H         1.77986144973721       1.88831978924369       0.62111585096518
H         1.50966365216561      -2.34918358690532      -0.08533189622077
H         2.90496191370753      -0.32387466152284       0.27051517353075
Cl       -0.97118825980109      -1.85775366201966       1.80915054172760
