45
C13H23F3N2O3S optimized with DFTB in AMS.
N         1.14417919078988       1.81284704318537      -0.63889302030941
N        -0.39339309086377       1.22823191864608       0.75164405850599
C         1.99524254263025       1.87104452317517      -1.82334375727038
C         3.28954859842999       1.05668175532046      -1.62490467816545
C        -1.51827210362189       0.52120195550746       1.35690005453078
C         3.36849628620284      -0.18598541498218      -2.51750189392104
C        -1.05477127034920      -0.77086457140375       2.03985307207164
C         0.07554303070259       1.03361055062899      -0.48047135972220
C         1.38726445229361       2.48286953181929       0.52935809858921
C         0.41657136141755       2.11333247512874       1.40512456827219
C         2.35683076456982      -1.26662008588183      -2.12281097006031
C        -0.67736621562373      -1.86060489295917       1.03358982512987
C         2.54160536407749      -2.53118113953976      -2.95922867404331
C        -0.14963935078256      -3.10342187872970       1.74726600963772
H         2.22816836218574       2.92504416998556      -1.99808255989724
H         1.41095529672462       1.50133799349849      -2.67026728272484
H         4.14047110493583       1.70558524637885      -1.84838157529302
H         3.36575273116080       0.75279415647693      -0.57939859849581
H        -1.96777704147855       1.19663761485543       2.08924088042312
H        -2.24895999690000       0.31163174413326       0.56964443276035
H         4.37906314199875      -0.59610882512703      -2.42488597274352
H         3.22178849338036       0.10027461669696      -3.56553803598021
H        -1.87754882822063      -1.11856052519633       2.67175297805083
H        -0.20244057420880      -0.54482154904454       2.68420884521331
H        -0.35598265225865       0.39264769228894      -1.22842627908682
H         2.23010140039857       3.14023649591020       0.64746199273773
H         0.25433768841435       2.38686364070794       2.43198919035114
H         1.33708279109572      -0.88913083465084      -2.26192493218129
H         2.48358150454253      -1.50735494581711      -1.06374952195605
H        -1.55323274603801      -2.11796473116340       0.42561934626677
H         0.09967777504941      -1.48042609363199       0.36441844285476
H         3.54139051567420      -2.94132681724659      -2.81224599094953
H         2.40723601577308      -2.31543419298958      -4.02070226540053
H         1.81112119078764      -3.28369199858314      -2.66166031184385
H         0.74912346443927      -2.85758855810380       2.31246198913791
H         0.09856919372252      -3.87151589241238       1.01459010912789
H        -0.89923893658715      -3.50212965489438       2.43253455896119
S         2.53720378993743      -0.35688848780850       2.32777113773674
O         2.76707250486312      -1.64408531615130       2.93124544570936
O         1.77724341169186       0.58737050892140       3.13291819447589
O         2.11007738751409      -0.39912402612968       0.93013848780439
C         4.20404785480357       0.44423406328838       2.19465785118138
F         5.04125926669260      -0.29298479334172       1.47271719888840
F         4.75643104082123       0.67937376014916       3.37425366086990
F         4.06670327501168       1.62445262468568       1.56196022335635
