42
C12H28ClN optimized with ADF in AMS.
N         0.14244381158712       0.01717989428704      -0.01659622355490
C        -0.70880295600576       0.57654528400332       1.10105839644344
C        -0.72240547517041      -0.59867183732293      -1.09402849612784
C         1.09226280742266      -1.04437915520152       0.56742153577556
C         0.98904855776742       1.14011638734467      -0.64900543336876
C        -1.73589472261753      -0.36702632946746       1.71237174259640
C        -1.86233905747750       0.26194115753126      -1.62210152315117
C         1.65890410159138      -2.04663353977851      -0.42535367071258
C         1.49173480394034       2.21381220107354       0.30161622410414
C        -2.48683209144298       0.36027077152227       2.82915762940956
C        -2.53829306441138      -0.45585513235834      -2.79155474101879
C         2.66607530615589      -2.93177514284754       0.31406525157687
C         2.40656400942306       3.15524372150475      -0.48654755710994
H        -1.20879822913522       1.47066064243646       0.69814036731585
H        -0.00122518194600       0.91105496939832       1.87325526101358
H        -1.11610022763882      -1.54169932258456      -0.68425454513178
H        -0.03382295344445      -0.85403395865899      -1.91238584067965
H         0.52696162618191      -1.56630720285179       1.35197142515411
H         1.94971856058303      -0.47921313118733       0.98577164051494
H         0.36881402742099       1.58892394352423      -1.43743960101393
H         1.88095380812447       0.63695850399215      -1.07108799274552
H        -2.45666051375525      -0.71665156331052       0.95544704525270
H        -1.24826812480798      -1.26214244048819       2.12987077484389
H        -2.60683099293138       0.45875162154475      -0.83378286927037
H        -1.49140210069365       1.24106365080412      -1.96508726429765
H         0.86851751833589      -2.66911330402566      -0.87760142101170
H         2.21306404278660      -1.50503360762216      -1.21124777990070
H         0.66278049960400       2.78323491442348       0.75500325767679
H         2.10700728656963       1.74053529482351       1.08600982563501
H        -3.23014144011796      -0.30456465401450       3.29148832464386
H        -1.79587665712658       0.69587656598838       3.61806794889181
H        -3.01585690935605       1.24608193133827       2.44417528033982
H        -3.37387326139822       0.14241408722427      -3.18170690486955
H        -1.82776624139171      -0.62460876283843      -3.61536993389295
H        -2.93694349355755      -1.43499160618460      -2.48327424053535
H         3.06299181808184      -3.70105678854439      -0.36486693088816
H         3.50281409597491      -2.29744680652228       0.65041899829299
H         2.20328660556097      -3.44054785237880       1.17643527549030
H         2.76165346965859       3.96840138006122       0.16357534240208
H         3.28153679952003       2.57991739019856      -0.83097913430735
H         1.88278754697818       3.60641885816183      -1.34615379123414
Cl        4.08460220005749       0.18722680100208      -0.01558174615091
