38
C12H22N2O2 optimized with ADF in AMS.
N         2.40833264892801      -1.11352985424566      -0.03429900188164
N         3.41428804352816       0.79227638242353       0.07075618666565
C         0.04138890810674      -1.79764828957297      -0.23215402329438
C        -0.40780200870650      -0.52701995979748      -0.94902902050053
C         1.49997441527029      -2.15501245711946      -0.52648357686421
C        -1.85336871547323      -0.12971257060452      -0.66206088896604
C        -2.23835922277911       1.16184042512055      -1.38600223474705
C         2.77646804102107      -0.04493344573396      -0.76676774665445
C         2.80559706751049      -0.94839973930052       1.27963284048012
C        -3.64178485761006       1.64795922889165      -1.03276215700568
C         3.44856185808697       0.25395267645917       1.34279056276984
C         3.83522110799593       2.13519234676114      -0.32560943632201
H        -0.09247010147221      -1.69255117760943       0.86067608158783
H        -0.57784577578373      -2.65782280737028      -0.54478100322701
H        -0.26330686938773      -0.65410694104737      -2.03719331791203
H         0.23961448247878       0.32300731289384      -0.67218659208264
H         1.66965579524098      -2.23289973712559      -1.61044575172046
H         1.79770188729962      -3.10570804183699      -0.05819303170978
H        -2.54181141326802      -0.94460883630322      -0.95902565492077
H        -1.98827248687816       0.00994557134913       0.42826316014945
H        -1.49006513399192       1.93964100144520      -1.15254573429190
H        -2.16240358509189       0.99764308129262      -2.47611285544294
H         2.45070217413310       0.20848211210564      -1.86294640558442
H         2.60881044748364      -1.69124335215722       2.04252963156704
H         3.92732841536883       0.76149026213067       2.17142593947496
H        -3.72938120883192       1.84891373020871       0.04789189654477
H        -3.89192359209350       2.57792428175623      -1.56660492062990
H        -4.40410568283414       0.89501417862606      -1.29275386313590
H         4.68584358148076       2.07070938336744      -1.01564882006750
H         2.96465118328201       2.59637718924032      -0.82958232913482
H         4.12456303162399       2.69019853752795       0.57360363762402
C         0.51017572434486       2.40244025260815      -4.13244636851004
C         1.23769247252342       1.76457428135629      -2.95046901764190
O         1.19408304825844       2.34352954281176      -1.82902137828243
O         1.84451436887143       0.66357755748287      -3.20624473975246
H        -0.23175567607515       1.69822703237382      -4.53926633927742
H         0.01547531913333       3.33584373769662      -3.83584838602508
H         1.23230728240642       2.60331495799529      -4.93905904217828
