40
C12H26ClN optimized with ADF in AMS.
N        -0.55568335031289       0.36869191406834      -0.09887998214408
C        -1.08023032364556      -0.31773715022347      -1.35534324326379
C        -1.72921867193883       0.78370086386518       0.76213494183184
C         0.34682495373002      -0.54746878068296       0.70855556077805
C         0.19953665096215       1.60491463545175      -0.57200737424329
C        -1.97959876768054      -1.49610371008002      -1.03823651984924
C        -2.66963065629890      -0.36556466161440       1.09922583296440
C        -3.16263101894233      -1.07689580690028      -0.16224142938130
C         1.60764589345437      -1.01365830757863       0.01177661818948
C         0.92843275743947       2.37980971900733       0.50990293386051
C         2.41427892974876      -1.91926351344058       0.94200502123168
C         1.56842555921726       3.61763814103157      -0.12339392214267
C         3.68218807520350      -2.43031110653404       0.26044010100152
H        -0.19400383419530      -0.53561864369919      -1.99628946711792
H        -1.65102963541940       0.46479133528268      -1.88238014512975
H        -2.26128221509634       1.55342303554249       0.18090555436344
H        -1.32180282281419       1.25130602621807       1.66964262665604
H        -0.26429953727811      -1.41224725164452       0.99653287819487
H         0.58362326621029       0.00762149989689       1.63061136176169
H        -0.56686401564188       2.23885423190183      -1.04725865951997
H         0.88107635188464       1.24863586034578      -1.38658118936004
H        -1.40835798767627      -2.30879804655931      -0.55784580084211
H        -2.33004149516309      -1.90087278137545      -2.00195441442063
H        -3.51414488118939       0.06059864837149       1.66717264280977
H        -2.17387292196729      -1.08170412931597       1.77502404990821
H        -3.80493357590071      -0.38437042904624      -0.73738211813866
H        -3.78482570326176      -1.94543190921648       0.10885809165949
H         2.22362628261102      -0.16357499850021      -0.31933423474271
H         1.37267084284828      -1.53929953497583      -0.92759960269383
H         0.25245094327464       2.69380843400847       1.32532128277609
H         1.72159103362981       1.76054957483680       0.95842350254210
H         1.79236065888682      -2.77679996046707       1.26130823135008
H         2.68203319308147      -1.36681648059398       1.86268128846349
H         2.13259016805537       4.19280330785107       0.62483654817998
H         2.25350168612867       3.32209436994798      -0.93220027418768
H         0.80225636123653       4.27895562714679      -0.55702233086859
H         4.32248172960905      -1.59101239694100      -0.05150868732133
H         3.43221876592742      -2.99888775402741      -0.64838658138150
H         4.26272169994770      -3.08116150722150       0.93108175843136
Cl        1.67743085953554       0.08960354146405      -3.12378886980502
