43
C13H24F3NO2 optimized with ADF in AMS.
N        -0.17250822934231       0.16935278761320      -0.10451055045039
C        -0.83722317215989      -0.84513225035735      -1.04557032305055
C        -1.25895594805024       0.53835113823022       0.89830596129240
C         0.99355206898671      -0.47362171487910       0.64740850305696
C        -2.29840988456437      -0.92222371939635      -0.62264719748940
C        -2.22039497832294      -0.63346111653763       0.87638580232187
C         0.28467723863182       1.40131696925470      -0.88192960980860
C         2.00506337122852      -1.19651076535196      -0.22090048679752
C         0.61708311179276       2.60627188730512      -0.02127098545050
C         3.13271546109048      -1.74522533395172       0.66221836228164
C         1.08870694433464       3.74459125274445      -0.92788200608367
C         4.28072735012046      -2.29548222859246      -0.17825261305602
H        -0.66424497301608      -0.53047244898169      -2.08176266646463
H        -0.34204322640298      -1.80812206837564      -0.88351770872527
H        -0.78965513704870       0.76875406648881       1.86257664296625
H        -1.75931885688085       1.43867381546583       0.51452527467910
H         0.53002938537072      -1.15589524792003       1.37907845041095
H         1.51418640522186       0.34666703261536       1.16978661716961
H        -2.90151817317334      -0.14831600610794      -1.12559984905703
H        -2.72996230423861      -1.90425738207977      -0.86206422251845
H        -1.80556902529731      -1.49868442813480       1.42023524139047
H        -3.18792835002120      -0.37448527377028       1.32828289277901
H         1.19229265588178       1.11038053710021      -1.43568350106891
H        -0.53747766833784       1.62315802237716      -1.58334924245902
H         1.55868489846284      -2.03314287504619      -0.78580385342309
H         2.44452061569827      -0.48316926302766      -0.93730280479516
H        -0.25516213273423       2.93483448834955       0.56856585505035
H         1.45000545791188       2.34826957895267       0.65711629972977
H         3.50662383663883      -0.93051036189306       1.30334149744317
H         2.73471654713281      -2.53354481587930       1.32838834453931
H         2.00804245988832       3.43638637470328      -1.44737390877111
H         0.32460880645392       4.02140802265324      -1.67331052946021
H         1.31526351220851       4.63608217250714      -0.32581344714860
H         5.09537136644839      -2.66367615025086       0.46259009973487
H         3.94487226590761      -3.12599826860738      -0.82096767166341
H         4.69320573014843      -1.50595267276194      -0.82482716720742
C         3.96182353324912       1.44689840213301      -0.02157805430316
O         3.47892561001421       1.41494618086063      -1.18059982520875
O         3.40293987161174       1.53438927369682       1.10164149992139
C         5.52559827610822       1.35746495650038       0.05822683095304
F         5.94349335698265       0.50119119148866       1.04578229850693
F         6.06946167559078       2.58577315708427       0.33858357988191
F         6.10464077437463       0.92105517997837      -1.09931213574814
