34
C10H22ClN optimized with ForceField in AMS.
N        -0.56480711213894       0.32212812087892       0.13419732880331
C        -1.55446889405866       1.23696822156954      -0.51821304605145
C        -0.90041880356606      -1.10102572471337      -0.17618260635597
C         0.77864441451885       0.66783705408658      -0.43988649985794
C        -3.02527050237403       0.90803513857307      -0.20034674896711
C        -2.35362499475362      -1.48054236551496       0.16271619774930
C        -3.34086637031941      -0.54689631940593      -0.52953528710932
C        -0.55148509053038       0.55918128882249       1.60368600749811
C         1.97857462606575      -0.14988027421765       0.10252969830708
C         3.28668776703277       0.31214745296062      -0.55349223762482
C         4.48272032929441      -0.47720965032352      -0.02711565827066
H        -1.44672298521510       1.19404455516996      -1.62741390446924
H        -1.36309849538765       2.29380920298038      -0.22323625326618
H        -0.24526514311811      -1.79580721757871       0.38996817608351
H        -0.73639630080108      -1.30761973378440      -1.25890728656421
H         0.99701775615106       1.74652257335831      -0.26077922804106
H         0.76265958515345       0.53491653664361      -1.54668789958935
H        -3.68042618974166       1.56352918173063      -0.81381624602975
H        -3.26570172141335       1.12438888604900       0.86079867803838
H        -2.51679813112260      -1.46330789409937       1.26093967106659
H        -2.54422555701638      -2.52084887070231      -0.17878128842993
H        -4.37356216498498      -0.78598918590490      -0.19513936659078
H        -3.29078187672276      -0.69995596268841      -1.63002644430044
H        -1.55366781718807       0.44719306314528       2.05993211998698
H         0.09465803481535      -0.17161841142219       2.13042307450621
H        -0.19266474866466       1.58543112081084       1.84055926397005
H         1.84423557388223      -1.22878448066505      -0.11833267790824
H         2.08148000481496      -0.01336338504622       1.19809567616961
H         3.45141183735542       1.39140804276644      -0.34260568107506
H         3.22415734162117       0.17513111786404      -1.65507738701330
H         4.36180716146103      -1.55820215278100      -0.25213500043590
H         4.58458904108644      -0.33934069570911       1.07046479490766
H         5.41116906563817      -0.11471752875368      -0.51692954874521
Cl        1.09434362602646      -2.88362576459888       2.88314533580915
