47
C13H13F18N2P optimized with ForceField in AMS.
N         0.06177013486059      -0.63069170259896      -0.42155708483652
N        -2.00116418846673       0.12952687180041      -0.08967213777323
C         1.42015181473550      -0.76616635545894      -0.94636367005153
C         2.46506831083436      -0.57822197642454       0.16034484562960
C        -0.84045626946755       0.31590411449169      -0.74761010992835
C        -0.55192389935023      -1.44382813446697       0.46292876536012
C        -1.83113496542811      -0.96946857780267       0.67092024880007
C         2.43045313844360       0.83134803945083       0.74636006264030
C        -3.20621784518819       0.94377728173971      -0.18031431605540
H         1.59630737387196      -0.02095824080578      -1.75312260091767
H         1.53790699455906      -1.77706196845966      -1.39274979445262
H         2.29772529616467      -1.31968624140995       0.97056768108784
H         3.47481131799633      -0.76204728842472      -0.26567199569987
H        -0.65577707753036       1.12183453696722      -1.44705922529308
H        -0.10494543403152      -2.31733850232951       0.91906455023220
H        -2.58150351307966      -1.39636742550872       1.32359485412064
H         1.45207240246278       1.02787823487437       1.23389207257547
H         2.60091365027851       1.58568045371678      -0.05094985151837
H         3.23023091054061       0.93441537347531       1.50964565360072
H        -3.05681211390602       1.78303212751749      -0.89279840159581
H        -4.05333423677595       0.31921294397307      -0.53382496899612
H        -3.45156501406688       1.36026916732323       0.81913832020259
P         3.39773541309614       4.77844205110621       4.28910586481572
F         2.09302549522155       5.78372342869641       4.79189411604052
F         2.97225098044730       3.10971605432711       4.36702762198322
F         3.92504253543698       6.34150777720073       3.79925599797111
C         2.18840702540206       4.57777180495537       2.78602959110206
C         3.40698616238722       4.78790016512137       6.22814203294437
C         5.25583362026756       4.44792766793325       3.87308036511379
C         1.82900801985400       5.85529607943148       1.98139436278784
C         4.41614083645338       3.85907599858428       6.93678110564796
C         5.65905485121840       4.43628401436967       2.38698056935227
F         0.98663844381650       4.04809935372465       3.24072865763266
F         2.70911008679547       3.66948159432487       1.88798258324791
F         2.15537456814099       4.40285970076711       6.70175013406293
F         3.66328280542457       6.07783738757711       6.67216554266552
F         5.60232251568638       3.20167688392135       4.36232949418063
F         6.05264655142255       5.38509984038994       4.51591843071132
F         0.96937192155996       5.50480131592506       0.95468376111998
F         2.94315677364430       6.43512998816991       1.41324552028160
F         1.18341525123060       6.79526806911719       2.76351657298942
F         4.16411241888659       3.88804732732527       8.29778238960791
F         4.28178147308215       2.55045365891329       6.51156684457870
F         5.71771685077916       4.28232997178576       6.75527262599677
F         5.14060666468196       3.32900903774102       1.74404019925285
F         7.03826441334800       4.35514767077495       2.30266499472126
F         5.26797645095946       5.58531594837694       1.73583129866071
