48
C12H26F2N2O4S2 optimized with ADF in AMS.
N         0.33850948170271       0.20749975638889       0.08717046432661
C         0.15440639880272      -0.27629910991369      -1.34077261645301
C        -0.93867675568028       0.88270656885317       0.54601255343131
C         0.66953499750669      -0.93641802288570       1.03360673921324
C         1.47229496955899       1.22811113099797       0.05116258098654
C        -1.03904851610567      -1.19767284287353      -1.49512308670229
C        -2.18215892288237       0.02125350131844       0.37250098163854
C        -2.32486102084988      -0.49850872917954      -1.05673713056856
C         1.80847047187446      -1.84063555210131       0.60291724400591
C         1.86689733318434       1.84663503309364       1.37898590310629
C         2.14706024494261      -2.80760258405636       1.74306900388807
C         2.82640317946056       3.00877961307165       1.10899083405910
C         3.17591305212815      -3.85170520470945       1.31763878191843
H         1.10619463916510      -0.72339575111687      -1.65493779803730
H         0.01141588556285       0.63860936472996      -1.93896855226769
H        -1.01941052157091       1.80226043904541      -0.05548067471091
H        -0.79528919510723       1.16526557468877       1.59691336092918
H        -0.25245376980231      -1.51935551590627       1.15877029059139
H         0.89264992407189      -0.45911843097856       1.99983879983100
H         1.13316372516870       2.00262123613109      -0.65504902612648
H         2.33039194404283       0.71850099487963      -0.40225705900643
H        -0.88767078819324      -2.13038740317184      -0.92568825908421
H        -1.09333998681133      -1.48628969423139      -2.55753916984263
H        -3.04742714648293       0.64553962718477       0.65052790878842
H        -2.17080470020803      -0.82088200685047       1.08455412992701
H        -2.52409666168198       0.34947190119207      -1.73713929061083
H        -3.18673430870382      -1.18033866115965      -1.12901942619461
H         2.70675050650169      -1.26051888926995       0.34483410479015
H         1.52474628861221      -2.42137101889109      -0.29106321792581
H         0.98974528295954       2.22000963083966       1.93374055368900
H         2.38277237686633       1.10199266388623       2.00463824276314
H         1.22722281040650      -3.31093098402366       2.09517938883456
H         2.53906898349638      -2.22749964208563       2.59730370976614
H         3.15861071419350       3.45699456309604       2.05619725077976
H         3.71132699898303       2.65394119915379       0.56313212738827
H         2.33798518594149       3.79273030722232       0.50917645584470
H         4.10390949470536      -3.36865023602614       0.98061087860344
H         2.79278440480731      -4.46197330761459       0.48445511380701
H         3.41737991651112      -4.52824704847451       2.15108330570675
N         5.66729944411056       0.22600698480736      -1.80386942440893
S         4.30654330687752       0.31424057954879      -2.63244311933431
S         5.65124402187552      -0.27574315433344      -0.28071853032916
F         3.68633723311625       1.80384929072705      -2.15265547746979
F         5.44135883234132      -1.91530956699749      -0.44664795834427
O         4.60271894068771       0.50627523088124      -4.03316100616950
O         3.24333190351263      -0.60426534899582      -2.22298526458277
O         4.48701853830846       0.12479350712447       0.50967527049854
O         6.97742747239290      -0.13199362151546       0.27196343935695
