47
C13H13F18N2P optimized with ADF in AMS.
N         0.06097613577404       0.29552702282608      -1.33534087035637
N        -0.50640021283906      -1.79029122213323      -1.53445282695723
C         0.53096936553450      -0.95571192057323      -1.39433854984109
C         0.88506880019766       1.50087546406941      -1.15963517980357
C        -0.39605468836826      -3.25384484009187      -1.65934909691034
C        -1.31205867784882       0.26143092148525      -1.45331467878023
C        -1.66720467473822      -1.05030829003497      -1.58134333198958
C         1.05526123058639       1.85232676258667       0.30941343475803
C        -0.11848752759007      -3.91314130500843      -0.31894455678995
H         1.57649388579447      -1.23428089264887      -1.41763127087570
H         1.84426412198764       1.30391193508414      -1.65809650516518
H         0.38780253611513       2.30271939039113      -1.72362363004677
H        -1.34262537524727      -3.59863379768770      -2.09603337451386
H         0.39154908987562      -3.45083659799616      -2.39953491693599
H        -1.90793741067482       1.16478202126074      -1.47356891280926
H        -2.63401491369807      -1.51212916119622      -1.73733102522175
H         0.08497975367728       2.04377396369147       0.79102059298306
H         1.67012543517339       2.75995674770786       0.39765397187947
H         1.56205121339568       1.04153025629242       0.85366687984499
H         0.84820865377644      -3.58873923017578       0.09378732387843
H        -0.07735838182496      -5.00390952954725      -0.45435208763434
H        -0.90863076278458      -3.68221499377165       0.41065575046706
P         1.56744429507632      -1.18030381714556      -5.42409449043877
F         2.55289408018501      -2.51591760006741      -5.51466072854425
F         1.02785369295481      -1.71090867740311      -3.90232266890438
F         2.05431429737968      -0.59867379229020      -6.89519768459414
C         3.10306446290004      -0.24037507834738      -4.57372354972656
C         0.21772451691151      -2.31059486941259      -6.34382158791750
C         0.32786116296913       0.38558125268468      -5.14398163660994
C         4.53678423580342      -0.83159095855380      -4.78015171204679
C        -0.51532337593183      -3.42470862885655      -5.53523531022692
C         0.11010767039104       1.47699117298938      -6.23795237584112
F         2.98545993125436      -0.16713808459479      -3.17687511338150
F         3.18669194015904       1.05303675370567      -5.02279615312416
F         0.85568697288378      -2.97487145693509      -7.36620682940510
F        -0.79150328838785      -1.58358542207542      -6.93544533007304
F         0.74455319733850       1.10950617996068      -4.02861480077916
F        -0.93017936121719      -0.07700666689618      -4.81275848020239
F         5.45387723927494       0.06986056903780      -4.31340840390671
F         4.81395036193159      -1.06131209514173      -6.07692395234604
F         4.71391204478112      -1.97520890546682      -4.07292487093328
F        -1.26144139668789      -4.19126103049023      -6.37516094450089
F         0.34408435566159      -4.24929783734514      -4.88605500049703
F        -1.37233685451438      -2.90078278284675      -4.61144277007881
F        -0.81125428046011       2.38313007029830      -5.77490136603525
F        -0.36345658650438       0.96984214015965      -7.39076107188111
F         1.24715377147363       2.15672359130276      -6.49572856298502
