40
C12H26ClN optimized with DFTB in AMS.
N         0.99538174268451      -0.43643563775253      -0.12595099982655
C         2.05310327236112      -0.19956609337622      -1.15850655653639
C         1.67072490135201      -1.34962656144052       0.85652795266872
C         0.63399108806539       0.85059031165928       0.56738955851021
C        -0.19021608277214      -1.10518837291755      -0.75498394476142
C         3.36751620426173      -0.11517442310122      -0.38345022353200
C         3.10520512793699      -0.84508359656704       0.94435413613445
C        -0.17923778923882       1.82658540987641      -0.27603063301912
C        -1.31392525588651      -1.43325268688568       0.22471955009373
C        -0.36104839586855       3.12893655047264       0.51478650766696
C        -2.44515570224985      -2.15706426806077      -0.51276409019133
C        -1.21042851596698       4.13170740203572      -0.26230587857254
C        -3.58874879396242      -2.48242177441794       0.44598408258303
H         1.82397772378311       0.70226566378085      -1.72576676877333
H         2.05577749295264      -1.05661145968873      -1.83652456040491
H         1.63352721496147      -2.36177453316425       0.44668160240844
H         1.13254328254098      -1.31039011207733       1.81192375757871
H         0.08198653250234       0.57621952359416       1.47556016999680
H         1.57459019688958       1.31646759420770       0.86880274381925
H        -0.54851173852959      -0.44775566032741      -1.55188043247769
H         0.18081424943085      -2.02585996252325      -1.21590941010333
H         4.16775740070659      -0.59020894025034      -0.95401810663701
H         3.64847898138108       0.92535582445240      -0.20759335966361
H         3.22426465204460      -0.16400496948242       1.78932320035503
H         3.79123306957240      -1.68228573030257       1.08389319247868
H         0.32069815031696       2.04447540916726      -1.22576793605674
H        -1.16516326182585       1.41066919359355      -0.49972085554309
H        -0.93787809512027      -2.06555305588823       1.03125429666993
H        -1.70422867994771      -0.52143531584702       0.68016187672908
H         0.62044458473070       3.56610231049069       0.72673185215624
H        -0.84310627078000       2.90387228363816       1.47090023520440
H        -2.81627469163454      -1.52483973972092      -1.32767215734948
H        -2.06160313958936      -3.08340548034087      -0.95532891692915
H        -2.20062023098805       3.71993559227840      -0.46227078272672
H        -0.73782320985384       4.37984285551918      -1.21417183509054
H        -1.32569292701389       5.04716675680846       0.31798169844466
H        -3.99648476422933      -1.56687606932825       0.87553464740976
H        -3.23424536150002      -3.11807650455243       1.25774190979341
H        -4.38446197680909      -3.00431772900059      -0.08612650618161
Cl       -0.36932727240825      -0.65064133496076       3.22881801307505
