45
C13H23F3N2O3S optimized with ADF in AMS.
N         1.51815251173305       1.53674443461656      -0.95940170291786
N        -0.53446023991650       1.29259738744113      -0.29136417880503
C         2.93906354310258       1.28523318696627      -1.26921221647504
C         3.26166016456560      -0.18431425166246      -1.46298381698023
C        -1.77585695320333       0.69861265704183       0.22389663586250
C         2.66128156928482      -0.83327702797186      -2.71134979005183
C        -1.78657102474960       0.62984941797065       1.74746530348064
C         0.60284259888142       0.64023321991539      -0.57199276844409
C         0.96473532121395       2.79619118502721      -0.87794469964994
C        -0.32210874531288       2.64396126280990      -0.45900000165687
C         2.98873433829553      -2.32356720194176      -2.79416274827193
C        -0.90299411290644      -0.48149597399501       2.30716012102801
C         2.38376201508522      -3.01132396332691      -4.01500589710115
C        -0.85889441724093      -0.44813505648704       3.83227723278560
H         3.49505928657348       1.70559401849828      -0.41249914195646
H         3.15811808106895       1.86356778510661      -2.18118271344532
H         4.36235509373930      -0.24890883962228      -1.51778161964380
H         2.98844226843813      -0.73013823114671      -0.54269863772942
H        -2.59567707864215       1.31931393328241      -0.16809420395757
H        -1.87153413196774      -0.30179093254317      -0.22703436350191
H         3.04603276093181      -0.32115648999145      -3.61344683273454
H         1.56326533583110      -0.70246093907535      -2.73846962406552
H        -2.83391320336044       0.48438573303228       2.06656887587892
H        -1.44364560789140       1.59876637165428       2.14921580104177
H         0.75525327100057      -0.42345742205780      -0.46872559513286
H         1.54951424878802       3.68439931837156      -1.07936301126134
H        -1.09179528164719       3.37204050301637      -0.23907765089832
H         2.63276208574872      -2.81974042643142      -1.87278147536897
H         4.08672630090044      -2.44708173757339      -2.80286437571733
H        -1.28020325380255      -1.45948980206345       1.95054158328036
H         0.12939662932122      -0.35805563017844       1.94116349265049
H         2.74810534208349      -2.55618103142518      -4.94998100879203
H         1.28447393837041      -2.93284192011162      -4.00991763291508
H         2.64328572633176      -4.08092951726634      -4.03953143967891
H        -0.40784280338034       0.49865816806114       4.16499815107642
H        -0.24361512380566      -1.26940583537325       4.22678112654342
H        -1.86855321949220      -0.53268805725043       4.26699030210776
S         2.30816080511244       1.64535818015219       2.29277640971514
O         0.95843432499339       2.17116978929064       2.56540284184258
O         3.21681634441129       2.57019304179198       1.58578910985856
O         2.34131083492177       0.25161101152479       1.78604907054371
C         3.07289255372053       1.49658682540568       4.00068458544523
F         2.34764445936361       0.65230651381801       4.78597495043283
F         3.11878986687967       2.70493012110823       4.62010264008981
F         4.34228869622708       1.01305876749191       3.93205049178960
