39
C9H20F2N2O4S2 optimized with ADF in AMS.
N         0.79294624270287      -0.45627177042195      -0.05520853496300
C         0.49230528281372      -1.41679592268028      -1.19448736222206
C         0.46958007221991      -1.29511834673258       1.17140020609467
C        -0.73966106296505      -2.20566172986143      -0.75142546119794
C        -0.76471074346695      -2.10725881437709       0.79606838973693
C         2.25282513140886      -0.06434622230984      -0.04101624614521
C        -0.13134991572909       0.73680949812936      -0.16439553623283
C         2.70508019548600       0.73523587203678      -1.24901733978692
C         0.07936757141524       1.80801143859606       0.88635284063923
C         4.22647314115536       0.88619882398655      -1.20610322239559
H         1.36681148525533      -2.07531882683191      -1.27257421644076
H         0.36115820369134      -0.84315959628221      -2.12052342263889
H         0.35680126054990      -0.63761361712913       2.04148594803821
H         1.34035318347623      -1.94156424548121       1.32821144140456
H        -0.63211346790219      -3.24662224111328      -1.08499324767836
H        -1.66224533863593      -1.79936774911077      -1.19271233795493
H        -1.69282054284337      -1.63300724218738       1.14912334921346
H        -0.69361123049244      -3.09822240903244       1.26535340001755
H         2.80819929226480      -1.00894636848240       0.02825056029353
H         2.43223267429661       0.47678039211510       0.90030227402703
H         0.01786836319774       1.14876423369913      -1.17262969849979
H        -1.15263746061238       0.33275807949306      -0.11444744983539
H         2.42374672540668       0.20989034087043      -2.17652368710965
H         2.22985882365615       1.73079081036870      -1.27556291792313
H        -0.04178602623024       1.42727381325458       1.90973327922198
H         1.06480853659992       2.28619083153466       0.80144408180258
H        -0.68245084201073       2.58659794482201       0.73320834654005
H         4.55027383151173       1.39205721387384      -0.28363302993703
H         4.71060412512825      -0.10176203695330      -1.23547128591117
H         4.58355056370155       1.47425153307561      -2.06328899639859
N         3.99076000139866      -4.42777656542715       1.24555070591615
S         3.73304032069256      -3.37093880758272       2.42763497947328
S         3.16310592911124      -4.33892217371627      -0.11383898591364
F         2.21636792348103      -3.78442916969958       2.98399437322179
F         3.79952053198273      -2.97054136708523      -0.87742250875873
O         4.61958859994173      -3.67070389746096       3.52597057450133
O         3.53986700615646      -1.98787737068933       1.99553244918367
O         1.75396404078924      -3.96625832925989       0.02052342570548
O         3.54145378669652      -5.42691215734754      -0.98391548778787
