36
C10H19BF4N2 optimized with DFTB in AMS.
N         0.79884295719749      -1.74352991292645       0.92969345339363
N        -1.17420585836800      -1.40168289716338       0.13718313718507
C         2.08014067236628      -1.53316461545469       1.59442685376595
C         3.04450002995805      -0.78794783082336       0.66246239660293
C        -2.44178357075022      -0.76286420636581      -0.19771219607392
C        -0.24473738008574      -0.91433712771098       0.95931953327188
C         2.74448331426782       0.71174415402860       0.59701780107403
C         0.55030292166475      -2.74623537083807       0.03452286978246
C        -0.69440679900761      -2.53094349073957      -0.46538327997845
C        -2.27550667148803       0.18931124032028      -1.38935028449747
C         3.53089555244724       1.37413543046269      -0.53208447455609
C        -1.60801558398149       1.50248041253797      -0.99491682387551
H         1.90018531612513      -0.97247836805998       2.51661831689829
H         2.47996359177368      -2.51822098763253       1.84892967501395
H         2.97082974286794      -1.22449492250671      -0.33691369195178
H         4.06097805306099      -0.94840727372393       1.03374743466390
H        -2.80119310118808      -0.23068992924605       0.68847407034837
H        -3.14900159067374      -1.55888487320016      -0.44490217833299
H        -0.33991653587579      -0.03793276501111       1.57526410949900
H         1.67638261492050       0.85765871632316       0.41208413910171
H         2.98968916759984       1.17978431478015       1.55781272570500
H         1.27882774240060      -3.50206435692850      -0.19569446333995
H        -1.25520758292463      -3.06115547533992      -1.21352941630205
H        -1.68273607983615      -0.30973878093234      -2.16046727859130
H        -3.27351708665839       0.38647994482474      -1.79189204328998
H         3.22286998619505       0.95640213276416      -1.49049944792175
H         4.60225795267065       1.21272026404939      -0.40376940721482
H         3.33702967641207       2.44691522493845      -0.53985192103882
H        -0.59330113084383       1.31995707851009      -0.64422209165113
H        -2.17260263489530       2.00719859035934      -0.20832206572323
H        -1.55538004488189       2.15637046811666      -1.86465384707609
B         1.09279533533213      -1.05925385081949      -2.51681028282128
F         1.64779757872322      -0.39922428459576      -3.58061048750368
F        -0.14513947033068      -1.64959192295329      -2.85016299065461
F         0.84830233594101      -0.14736202733556      -1.44762828260036
F         1.95448877826505      -2.06276236010807      -2.02112056061086
