31
C11H17NO2 optimized with ForceField in AMS.
N         1.10192909543010      -0.00212701514221       0.50006548599714
C        -1.26947166577629      -0.01889448456230      -0.15697411419563
C        -0.27513538583816      -0.03709156070004       1.00809731198269
C        -2.71613322817993      -0.03778998887300       0.34960778920526
C        -3.70647567914403      -0.02201591503122      -0.81094046831602
C         1.71555955995055       1.20193778562985       0.28442468839747
C         1.75746018149911      -1.17257440833934       0.22947442312439
C         3.02120140030354       1.25427452910847      -0.21006683418924
C         3.06401854919819      -1.15492793023424      -0.26541108964536
C         3.69704408282346       0.06689783359023      -0.48560351694998
H        -1.09029982348797      -0.90714716246961      -0.80180589697742
H        -1.10191047493127       0.89733385119788      -0.76471658086277
H        -0.43453430030525      -0.95044283285818       1.62410240404697
H        -0.45988594534117       0.83530612411952       1.67442718420809
H        -2.88930828460950      -0.95251476579117       0.95739948047631
H        -2.90068216666426       0.85141096167496       0.99106723001403
H        -4.74367319473207      -0.03452536770137      -0.41460390991114
H        -3.57087156889549       0.89595246694206      -1.42163841624011
H        -3.56134661915030      -0.91589638574773      -1.45427086749997
H         1.19546943643991       2.13002327787509       0.49065424932140
H         1.27066969792462      -2.12721966592519       0.39173729862033
H         3.50348852038049       2.20816484856204      -0.37919853171246
H         3.58139178196001      -2.08043942436903      -0.47748888534430
H         4.70850939743651       0.09316295787108      -0.87011639012841
C         2.79695137701437      -5.46272287542978      -2.91834277440809
C         3.20677144122102      -5.68103916315723      -1.49607552904936
O         3.21455951788136      -4.74484269538471      -0.71385175311536
O         3.53210530810640      -6.79296513489592      -1.11256936719391
H         1.75489412495961      -5.08112157828601      -2.95112155166497
H         3.47267125287407      -4.72021357543659      -3.39268587345128
H         2.84941275585236      -6.41325560293632      -3.49148785583829
