31
C9H20ClN optimized with ADF in AMS.
C         2.63401202065849       0.42385917403668       1.59572857347270
C         1.72838640037511       1.34081673271491       0.78376096291163
H         1.35162747816242      -0.84614500553222      -0.82053046518523
H         0.25420331115649      -1.60838694441333       0.36839655743156
H         3.05074477841481      -1.54599589469563       0.66563916293709
H         1.96478537572495      -1.62337962228721       2.06034953148927
H         2.48913363151469       0.58080204502003       2.67477839014181
H         3.68979252061339       0.64210716948737       1.37929866611387
H         1.38893231318942       2.29617699132022       1.23929202990812
H         2.15449298554173       1.54569966147342      -0.21051883186983
H        -1.21665260920527      -0.18069462546981       1.59865030230864
C        -0.37023018645398       0.49597614426736       1.76500725577456
H         0.23839245040042       0.13288309701026       2.60205214519435
H        -0.68851210728656       1.54900883024648       1.93599610177568
C        -0.28179647734301       1.15861728079064      -0.62327905875165
H        -0.41992709912676       2.20638657014515      -0.26558494125429
H         0.41494463104684       1.14051885411532      -1.47694368248778
H        -2.31002981648720       0.56772057468402      -0.14083435272908
H        -2.96020033535712      -2.14377202431546      -2.78751961944264
C        -1.61712686217830      -0.82040847743156      -1.67919315235440
H        -0.83445049435468      -0.83754994912434      -2.46107789158860
H        -1.35445142467194      -1.61169466550179      -0.95676152550245
C        -2.97013958151734      -1.15413384220266      -2.30515669993692
H        -3.24190251202918      -0.40930871823517      -3.06977367784747
N         0.47695908043814       0.51250842166918       0.52503522642252
C         1.03898226415086      -0.85606631196745       0.23369658196154
C         2.23521550989813      -1.01878325323182       1.18227654595437
H        -3.76615397007807      -1.15734515030560      -1.54357144916161
C        -1.62081891701038       0.55298250645753      -1.00223380846454
H        -2.05149643018426       1.28614262808496      -1.71106373133473
Cl       -0.42786381530184       3.75788164279053       1.42600713501351
