45
C13H23F3N2O3S optimized with ForceField in AMS.
N         0.21756818092528       2.31705539372756      -0.20361813996330
N        -1.85850527299960       1.51147621400799      -0.19205264202209
C         1.61141339362113       2.51643835884103      -0.60428008298415
C         2.53916984217017       1.49134097806684       0.06881320668973
C        -3.04206919139704       0.74818101629211      -0.59031182553462
C         2.10355445226637       0.04962222524061      -0.22566350647977
C        -3.06225331222210      -0.63714416605769       0.07306644853049
C        -0.74062670861980       1.69731163531642      -0.92182503256200
C        -0.31658240339612       2.54130170618534       1.01439206633891
C        -1.60376406601655       2.04221449132583       1.02153091064399
C         3.06939632438719      -0.97493806169980       0.37390525666616
C        -1.84876557291597      -1.48578026061721      -0.32991224915323
C         2.56224999099237      -2.39657034128335       0.13916661733207
C        -1.88732989763651      -2.86655188124473       0.31550979703903
H         1.93191158136240       3.54390770694038      -0.32751347801969
H         1.70503238824932       2.42225299160012      -1.70860854961026
H         3.57303322116319       1.64787757597903      -0.30921644353170
H         2.54323357321208       1.66229892908182       1.16739894288272
H        -3.95591818465350       1.30954820261900      -0.29867147430448
H        -3.06274184112189       0.62594600240043      -1.69547097630221
H         2.03245321841329      -0.10385461294630      -1.32535183369397
H         1.10714202733451      -0.11445347889244       0.22637636412161
H        -3.99258542605977      -1.16314423626282      -0.23348736030800
H        -3.08448529577550      -0.51500524619163       1.17565710452203
H        -0.59787599027441       1.31364324919293      -1.92436086622302
H         0.20534298952488       2.99018839094507       1.84947901162060
H        -2.28493300842088       2.02857330312039       1.86252499905676
H         3.16335139451917      -0.80509579738681       1.46873580997382
H         4.07235243238346      -0.86367248351224      -0.09170979874456
H        -1.81429917620413      -1.59804247321911      -1.43527069287747
H        -0.92207827255013      -0.98347401555528       0.00203460784477
H         2.47721910069280      -2.60141723801602      -0.94949737501020
H         1.56671382491336      -2.53508257274776       0.61385556452439
H         3.27128047753853      -3.12508872517461       0.58507746325525
H        -1.89254226769758      -2.77439820165315       1.42286143169081
H        -0.98430467175774      -3.43924913536874       0.01387977532014
H        -2.78940185975958      -3.42259301421262      -0.01520659486177
S        -3.41047110616193      -2.75233295203238       5.33328091176895
O        -2.65461598205231      -3.80345699956217       4.50756913113415
O        -3.22437608692965      -3.24304084024212       6.77633912539674
O        -4.88344235154470      -3.07514804859215       5.04340447813339
C        -2.92106989410969      -1.03073540374143       5.03229863678205
F        -3.15205493446740      -0.71215156707033       3.70949092475310
F        -1.57748773587610      -0.87637171483590       5.31449755001105
F        -3.66182261984891      -0.19174650536412       5.84222672805380
