27
C7H10F2N2O4S2 optimized with DFTB in AMS.
N         1.48549075851101      -0.57210109859989      -0.05645185035447
C         2.58871949047758      -1.41375170366551       0.43138370306627
C         1.63319153567287       0.75957923528141      -0.03036731662210
C         0.38481713605816      -1.13754278784002      -0.57458805077754
C         2.72901338720472      -1.29608683225404       1.94285583347098
C         0.65288802054023       1.58494368109136      -0.54507454115672
C        -0.62476867233798      -0.35646944276161      -1.09437533644253
C        -0.49246505565050       1.02791286251306      -1.09027068857384
H         2.38134001689052      -2.44531569178813       0.13857982292791
H         3.49782639611395      -1.07103892999735      -0.07004537540100
H         2.55712688365043       1.14816577649413       0.38004857450470
H         0.33738928442124      -2.21989076152491      -0.57491522027876
H         2.98723775645765      -0.27687325994674       2.22450224582781
H         3.53054808806796      -1.95781718414158       2.26697471826851
H         1.80346492970846      -1.58540815376024       2.44047105465740
H         0.81644034794842       2.65479123633217      -0.53957587270849
H        -1.50114227329604      -0.83332652590992      -1.51445171047719
H        -1.26773378941695       1.65436688069590      -1.51426284689502
N         5.58592757217474       1.58767758706572      -1.39426770632237
S         4.17849156537928       1.54323950513903      -2.11308898724898
S         5.67220412412943       0.89371331953748       0.03015824824614
F         3.28177636749681       2.65687355766691      -1.28732075987046
F         5.59714529217990      -0.70624388044321      -0.31448054212114
O         4.29947319624880       2.09942004448945      -3.41438087522635
O         3.39478825807603       0.34549888877273      -1.94251357001082
O         4.54115107289296       1.07190925468660       0.90581247446290
O         6.97700262120026       1.08301791916720       0.55583607975516
