38
C10H22BF4N optimized with ADF in AMS.
N        -0.15144701739646       0.30780119955122      -0.27396872134796
C        -1.46874067737283      -0.19694749432123      -0.81674594940726
C        -0.53466600636820       0.84747438196950       1.09283758154063
C        -2.19321540532271      -0.81800770654644       0.37974474087468
C        -1.56142093799566      -0.14911894800985       1.63105817880491
C         0.40232318759846       1.40128939596287      -1.16267307207222
C         0.83454384749410      -0.84096397370434      -0.08621381881640
C         1.70600719565589       1.99502352295809      -0.67356547761320
C         1.41894970242399      -1.40465546377955      -1.36857448383661
C         2.12357666910338       3.17139568406242      -1.55107407867013
C         2.33491204514646      -2.58077174225264      -1.01967863753094
H        -2.00393897613798       0.68580349306928      -1.19791771363978
H        -1.27566265633751      -0.88431829885921      -1.65006988428608
H         0.37752968100816       0.95042847545311       1.69891382252479
H        -0.98691305983486       1.83475217937615       0.91115053960937
H        -3.27364094777166      -0.62706211050334       0.30358464456753
H        -2.05945430602210      -1.90937095768898       0.40437712723811
H        -1.07617678720538      -0.89566092724905       2.27584541281360
H        -2.30916972964470       0.37282630166317       2.24484751758077
H         0.50317831164063       0.96472923738487      -2.16938970452721
H        -0.39240154631753       2.16624010267104      -1.20562084169656
H         1.63650707673698      -0.46162807681098       0.56446260715970
H         0.28301300616022      -1.61894695188435       0.46335627335852
H         1.61367551813086       2.32980621532777       0.37041541796330
H         2.50417161821489       1.23809172679122      -0.66384196135201
H         2.01955921830946      -0.63269278609456      -1.87515938664492
H         0.62969903392055      -1.73423825356688      -2.06850180043121
H         2.26334445672841       2.86809931596084      -2.60152092878255
H         1.37818156045540       3.98350649505125      -1.52423043752000
H         3.07857614556163       3.57092419012652      -1.18175461356558
H         3.13395299550907      -2.24168220337392      -0.34337932734591
H         1.77427573608520      -3.39044906587998      -0.52615430261504
H         2.79680874407916      -2.99136576307907      -1.92900514262874
B         3.71174379813367       0.75067142987858       1.78310381343468
F         2.33713623626916       0.71925846766542       2.27254134081308
F         4.00384793960230       2.06254568534950       1.35069512803036
F         3.76240813345969      -0.14049418926370       0.64807146885629
F         4.57738383219985       0.31361615669523       2.78495284165994
