48
C12H22F6N2O4S2 optimized with ForceField in AMS.
N        -0.52221563984245       0.00735530014499       0.00174400603189
C        -1.44428250330995      -0.55904456322735      -1.03050432326607
C        -1.42207156517918       0.60567344934104       1.03541846569358
C        -2.84698281709357      -0.06367384724949      -0.73659232712276
C        -2.83981783417810       0.15071641238186       0.75014067568555
C         0.32871950430677       1.07256789850603      -0.62239363145281
C         0.29246978548521      -1.08689211245663       0.62480553557262
C         1.34313576968896       1.73012279878688       0.34303128334112
C         1.28679577455717      -1.77608601891512      -0.34012129221102
C         2.05909350871979       2.89556232920285      -0.33152680682079
C         1.95679274866940      -2.97266194338173       0.32944265217579
H        -1.15966206984136      -0.28789585629152      -2.07288544621953
H        -1.48354690444025      -1.67220038867597      -0.99484023243018
H        -1.14031783737471       0.33168476668484       2.07779171653940
H        -1.42903044741731       1.71936130095354       0.99367553329420
H        -3.02317161829888       0.90369160660360      -1.25742134096539
H        -3.62150972542576      -0.80100411034362      -1.04054624384803
H        -3.04050595193020      -0.81112220198276       1.27226287304814
H        -3.59095463413145       0.91010421808446       1.05851417469886
H         0.88811786155895       0.66533212305345      -1.49352402778114
H        -0.32574511497840       1.87188439586492      -1.04255033755281
H         0.86403127254273      -0.70053142988944       1.49748848880881
H        -0.38902067093490      -1.86444267998685       1.04260320753501
H         0.83674821542266       2.11026243219792       1.25431965594437
H         2.11536604254939       0.99674311940107       0.65363423203087
H         2.08671338604708      -1.06959289903905      -0.64306812567956
H         0.77045013379308      -2.13099246144252      -1.25602736045911
H         2.60915215022000       2.53833711874442      -1.22791951697525
H         1.33058363268473       3.67659962218543      -0.63472674677318
H         2.78619435490648       3.34521000546569       0.37702572427234
H         2.52520542756299      -2.64300118227741       1.22520157871048
H         1.19623389190424      -3.72345505788705       0.63209644872940
H         2.66253613876049      -3.45063656401478      -0.38239652628987
N         1.82935671254835       6.09695670948191      -2.82245923596348
S         3.35512129532959       6.69650317989665      -2.77219432703679
S         0.57459052083436       6.80810022054512      -2.04146129030633
C         4.26149885683958       5.89285319163208      -1.46632409000049
C        -0.28896404616655       7.88292136081844      -3.17007663909509
O         4.04138254713130       6.41825695338113      -4.07926702813230
O         3.33200410333773       8.17917179001206      -2.52375524520670
O         1.06776875386455       7.60908842999928      -0.86853137008743
O        -0.37580594883223       5.74872270528035      -1.56071393185451
F         5.52321251639482       6.44771879791257      -1.36807512313663
F         4.37804794140438       4.54532781954421      -1.74704542419606
F         3.59485511520116       6.05687221988843      -0.26726779665687
F        -1.33996475096287       8.49540168800123      -2.51393147223176
F        -0.78020455805175       7.14326444191503      -4.22907031022950
F         0.57609245932393       8.84821945544980      -3.64840513613099
