66
C18H34F6N2O4S2 optimized with ForceField in AMS.
N        -0.01873783061935       1.98753474166570      -0.00053986492642
C        -0.69037843643807       2.89081212593080      -0.98539409679634
C         0.63469858737713       2.90542420301289       0.98270609483330
C        -1.03559091035914       1.14702311875696       0.71183514437463
C         1.01503914604497       1.16618087350503      -0.71078895399855
C        -0.21119457400700       4.30678201937700      -0.73237778542935
C         0.12031446118964       4.30945704890336       0.73313481611022
C        -1.78817809037823       0.13992603292188      -0.18874741707050
C         1.78278192583480       0.17062662856792       0.19093743192008
C        -2.87646545788947      -0.58791374544215       0.61066488341479
C         2.88805593583231      -0.53316801614708      -0.60660096578527
C        -3.63520614428753      -1.59004204900984      -0.26742990430397
C         3.65786497563869      -1.52934250220037       0.26886714216983
C        -4.69012617964113      -2.34949079799758       0.54506104436112
C         4.72962319866759      -2.26438662567610      -0.54502834519119
C        -5.44289160761161      -3.34964671076173      -0.32830440616141
C         5.49660446174945      -3.25888021506805       0.32228853140677
H        -0.49591194999804       2.61085891125975      -2.04663579395324
H        -1.79757595695325       2.90038205856636      -0.86271144107131
H         0.45045060328711       2.61997302244275       2.04415931400429
H         1.74104548101430       2.94086023466222       0.85627879666499
H        -0.56194161578924       0.58385957420245       1.54595257565611
H        -1.78884357192602       1.81003154714289       1.19828644094995
H         0.55360845484646       0.59573755435259      -1.54701736357752
H         1.75747949715354       1.84306842429632      -1.19490576434607
H         0.70679642585437       4.50817447928344      -1.32829307892041
H        -0.99203961218759       5.05877762520169      -0.97910053584129
H        -0.80242491409160       4.48624457540280       1.32964088148864
H         0.88193402811227       5.08025864632979       0.98186667047132
H        -2.26074191229997       0.66465159876278      -1.04427018193495
H        -1.08423435060239      -0.62038960798938      -0.58618056002650
H         2.24024226438283       0.69753370017095       1.05474269626434
H         1.09096190097369      -0.60525984980635       0.57924409330846
H        -2.40293702654074      -1.12708385145384       1.46069360532547
H        -3.59423067962831       0.15719841307645       1.01943239704440
H         3.59561786104644       0.22657619373025      -1.00622596668237
H         2.42860178240110      -1.07410534116560      -1.46331512752696
H        -4.13749363701990      -1.04332523682614      -1.09482237439778
H        -2.91515530601762      -2.31652473533892      -0.70480565173101
H         4.14267545348290      -0.98180217448745       1.10711135324951
H         2.94724355596610      -2.27204888749521       0.69405559974200
H        -5.41876340198668      -1.62984912622367       0.97824591322701
H        -4.19898676898659      -2.89830692324294       1.37817508320350
H         4.25075218578732      -2.81513668574308      -1.38407081339310
H         5.44734337688517      -1.52945246104384      -0.97069405530592
H        -5.96280724019265      -2.82416170001607      -1.15753479562088
H        -6.20049736804279      -3.88276045262063       0.28393423365016
H        -4.73968416215755      -4.09793361024768      -0.75208100282895
H         4.80400242196640      -4.01783367805201       0.74454858792470
H         6.25929655154709      -3.77997673538558      -0.29405117646630
H         6.01214773265494      -2.73025218737479       1.15210344958898
N        -2.06913448132273       0.93957714007321      -6.06832685612003
S        -3.47513205619531       0.12875223089735      -5.83557142779579
S        -0.59757690530307       0.22432070705004      -5.95440093239985
C        -3.92285533088692       0.23133487946942      -4.11646032332044
C        -0.02445336917450      -0.17443079730563      -7.59204732446723
O        -4.55841493976279       0.76495444815530      -6.66006860829780
O        -3.32615632796837      -1.31458756781786      -6.22971573352802
O        -0.67313117456426      -1.02970731596446      -5.12824736247392
O         0.37152161323738       1.18312646372755      -5.32210726166877
F        -5.11879934916878      -0.42750505911182      -3.90387823469495
F        -4.05911025564399       1.55775273668496      -3.75319297909770
F        -2.93414527337198      -0.35423445450442      -3.35191426500477
F         1.20957676044488      -0.79174696021206      -7.51808509210462
F         0.08729404151174       0.98485257007290      -8.33575477102843
F        -0.92657692097548      -1.02429338442343      -8.20234129356468
