35
C11H20N2O2 optimized with ADF in AMS.
N        -0.92674486579072      -0.88560297863749       0.26133925204765
N        -2.62181235028303       0.41328562762127      -0.18112709799537
C         0.09253234223250      -1.58654160608227       1.03351746001193
C         1.50688456453151      -1.30603706663582       0.53961920372789
C         1.89512973698258       0.16550460492554       0.65477146852395
C        -1.71534604488795       0.08898508255611       0.77068060942974
C        -1.45187241745083      -1.29635514235482      -0.95880100159452
C        -2.51397022440212      -0.49730683545809      -1.22535421134889
C        -3.82418074677252       1.18911552588302       0.11435049538138
C         3.29754264267231       0.45034609406297       0.12519074819479
C        -4.01173669065989       2.36369122639834      -0.82961547421207
H        -0.04473830929811      -1.27138780465137       2.07872132064964
H        -0.14489214038905      -2.66146793411933       0.99285059409295
H         1.60380454708223      -1.63716812071842      -0.51083806747398
H         2.20126390548486      -1.92953362028378       1.13142874696669
H         1.16055548832603       0.77444111274286       0.09878669514941
H         1.82647972520661       0.47264250304583       1.71479635902123
H        -1.41915044348086       0.74928407645468       1.57439750023012
H        -1.03578284382596      -2.13173251991881      -1.50647577641978
H        -4.66038551809882       0.47018808706609       0.09197739478416
H        -3.72880580626507       1.51971415666173       1.15813807364279
H        -3.22925499479956      -0.52146230379597      -2.03639791293760
H         3.37761272194144       0.17788487626462      -0.93957090938503
H         4.05602011700750      -0.12734188460789       0.67739981736253
H         3.54776274097771       1.51733340478856       0.22091426940001
H        -3.16900851504476       3.06722977206646      -0.75286999414427
H        -4.93837053052215       2.89673768392354      -0.57083731327227
H        -4.09241255063911       2.03456090618058      -1.87648711873013
C        -4.11408727800122      -2.54081289653681       3.29131319538760
C        -3.64242343981441      -1.64819747353962       2.13891395652453
O        -2.70005946393379      -0.82776140677694       2.47480697836616
O        -4.15797286382300      -1.78336568143527       1.00967969198065
H        -3.33221600827441      -3.28580873005184       3.50686188376800
H        -4.25793682011691      -1.94945898551725       4.20721381611154
H        -5.04065308867105      -3.06342063022041       3.02173944875856
