56
C16H32F3NO3S optimized with DFTB in AMS.
N        -1.44305920115923       0.74163324527760      -0.44204016193940
C        -2.09159981161507       1.79917506736023       0.40964062034973
C        -2.33573327998417       0.46014098525212      -1.62057177493163
C        -0.15792974108012       1.28814432126446      -1.00994050261299
C        -1.19625356808811      -0.48038300644004       0.39292364386934
C        -3.50916051197621       1.44042384802465       0.83997795966676
C        -3.74512450282257       0.04871651465328      -1.21951669557746
C        -4.39367642932594       1.13610269616480      -0.36697132456439
C         0.91069312823550       1.65714365698396       0.01318473553559
C        -0.45921164832404      -1.61479710088800      -0.31562690101756
C         2.08571867201055       2.31186535362019      -0.72546143562897
C        -0.33230276281802      -2.80828163780555       0.63936766855492
C         3.19078552394960       2.72248054268682       0.25163148773174
C         0.40765676015494      -3.97066596579549      -0.03024127754097
C         4.35332922142547       3.38978834460995      -0.48079984349824
C         0.54088006953301      -5.16144647884545       0.91685320490016
H        -2.11045654692344       2.71396222893383      -0.18669586209592
H        -1.46176243888287       1.95200200976647       1.28758569491614
H        -1.85804506465541      -0.31441233550946      -2.22264032073774
H        -2.37518323953692       1.38187548848130      -2.20564161320674
H        -0.43211564950191       2.17325785880118      -1.58606657700573
H         0.22790579887770       0.54262110172998      -1.70855799319440
H        -2.16644177189554      -0.84193666232026       0.73768995710296
H        -0.62613621329202      -0.15792619477194       1.26767370404027
H        -3.90549697961238       2.30598739048387       1.37709432587762
H        -3.50417224553516       0.59352578403398       1.53368487881255
H        -3.74162465428116      -0.90912705057809      -0.68932494068802
H        -4.31485804063403      -0.08566815473285      -2.14265624703033
H        -4.51212006381059       2.04234244547359      -0.96693657066538
H        -5.37979772801390       0.80894026407396      -0.02944588624186
H         0.51521269080627       2.36794077940702       0.74271023501332
H         1.26449167641270       0.77305146595138       0.55203401664966
H        -1.00394703721210      -1.92804809228366      -1.20968560793229
H         0.54008502549575      -1.29521050511266      -0.62047916144097
H         1.72367665262179       3.19485848873013      -1.26062386200663
H         2.48798695919853       1.61121951078391      -1.46471860488861
H         0.20955388138548      -2.49775013667982       1.53909534680761
H        -1.33084608913582      -3.13699256347485       0.94665153474926
H         3.55371412701886       1.83782782241601       0.78670728630082
H         2.78020861372119       3.41676355718987       0.99231175206937
H         1.40344377568641      -3.63644682612272      -0.33970657925906
H        -0.13708751404218      -4.27755994351703      -0.92918332144276
H         5.12685670730842       3.67774933050345       0.23122171363530
H         4.78877294209015       2.70580397929793      -1.21049726950462
H         4.01094157054203       4.28338913293779      -1.00358166853456
H         1.06876280272579      -5.97471025734262       0.41919532117862
H         1.09951028516943      -4.87906938555364       1.81009046009747
H        -0.44321513805030      -5.52008212370118       1.22118108139907
S        -2.18370082330182       4.04919322164519      -2.84636915647419
O        -2.71873533081796       4.89094134901999      -3.87785523553600
O        -1.31985392362670       2.96250062045580      -3.29548063111544
O        -3.12640673337960       3.63039821377897      -1.81328704481248
C        -1.00327161394731       5.11290568038052      -1.88292403750575
F        -1.57033798273307       6.21075038549704      -1.40699592746037
F         0.06196136029104       5.45857578557391      -2.59338305906792
F        -0.55898806464490       4.39646662843019      -0.82485814629888
