44
C12H24F3NO3S optimized with DFTB in AMS.
N        -0.30164627092743      -0.43734489026615      -0.08969861358723
C        -1.22503304039324      -0.05616142702877       1.03759050812178
C        -1.06515470852495      -0.33579367719807      -1.37578132075291
C         0.25251464250802      -1.82048070325018       0.12806221062582
C         0.80950747118600       0.57730248931446      -0.15097698251056
C        -2.50157182224563      -0.88449179757448       1.07852609006467
C        -2.30649189925861      -1.22093915941630      -1.38801705904569
C        -3.24841670533801      -0.83260537289280      -0.25071405007795
C         1.10812974211268      -2.35009436553645      -1.02065501780547
C         1.79543901009544       0.52513152011219       1.01790261655969
C         1.84379831495781      -3.61115418945533      -0.56433387543949
C         2.69143601938059       1.76239418502630       0.98164258380192
H        -0.67918992097130      -0.18993237010201       1.97113480841291
H        -1.46530272005177       1.00303050168546       0.90389697402517
H        -1.35599503299221       0.71283213408065      -1.49123385598205
H        -0.39030040063354      -0.59966490171574      -2.19188899071587
H         0.82999062025463      -1.78836280904523       1.05129821950673
H        -0.58610275753229      -2.49421254559465       0.29862755025734
H         1.34329913294942       0.42350643918293      -1.09211706907592
H         0.33204814879087       1.56074439823641      -0.19170942041820
H        -2.27158300221354      -1.91553643478527       1.34919507493579
H        -3.12496485779509      -0.47045016455162       1.87503801404558
H        -2.80237643825850      -1.07930337587742      -2.35209792300135
H        -2.02689031318724      -2.27382314709418      -1.30771507290658
H        -4.09725409825911      -1.51991104137797      -0.22446712390167
H        -3.63265460144312       0.17854379527125      -0.42491303815343
H         0.47742853067080      -2.59444886417143      -1.88163562976921
H         1.84194573803611      -1.60453512341243      -1.34072251455803
H         1.26511844597181       0.49184501787012       1.97172772961943
H         2.41998198495780      -0.36791378809894       0.94535431465419
H         2.38307213934373      -4.04442331573380      -1.40650472098862
H         1.13863809728874      -4.34596684115793      -0.17837211289840
H         2.55045812036497      -3.37086461541833       0.22863245933474
H         3.40928688099546       1.71408627663952       1.79947472289800
H         2.09886684187880       2.67148526971419       1.09161524582564
H         3.23926340190750       1.81330211748927       0.03984071891158
S         0.02344013933960      -3.35531366016639       3.24238573264954
O         0.29753095904934      -3.73129563616868       4.60124203910176
O         1.02052659416890      -3.73987698207236       2.25759193171808
O        -0.47026894735628      -1.99020965490557       3.05754311242252
C        -1.45494703330794      -4.36080313069783       2.73516325964417
F        -2.54327614725846      -4.02260329395252       3.41895940761519
F        -1.26335810431155      -5.66423212291298       2.86344647923649
F        -1.71745137524920      -4.11437252229097       1.43234650859993
