34
C10H21NO2 optimized with ForceField in AMS.
N        -0.34778540509532       0.35710233715687       0.03827238223531
C        -1.40130542807156       0.58324386150169      -0.98564962241509
C        -0.79998607718814      -0.83555247565522       0.81323317788443
C        -2.67785828901606      -0.04409376828492      -0.46637395672421
C        -2.19098300928759      -1.22938707402982       0.32687940392366
C         0.95972081635143       0.11172991471974      -0.64305900675098
C        -0.26940576631469       1.55337946757211       0.91792547296678
C         2.16205213963220      -0.02691273927650       0.31921755812528
C         3.37666223739282      -0.60895914401042      -0.39819152431439
H        -1.15315546217959       0.07997943176921      -1.94989403156235
H        -1.55977186698124       1.66180021363773      -1.21796467668838
H        -0.84653281036110      -0.63333618888740       1.90848075803361
H        -0.12444061239461      -1.71140242268608       0.68609161378156
H        -3.35460829882186      -0.35078196247025      -1.29315948898489
H        -3.20617843182159       0.66905694982388       0.20400207840425
H        -2.87565944976040      -1.46226009157504       1.17070754211364
H        -2.11766934761107      -2.11633330383026      -0.34195343661861
H         1.18109802610400       0.94468306677554      -1.34977849207185
H         0.88898548099142      -0.81478473325649      -1.25980218413588
H         0.12177292790917       2.43272709252954       0.35900188996935
H        -1.27144790474084       1.81927857196474       1.32265355278538
H         0.39408104493913       1.37354867219240       1.79144178239616
H         2.44163998986874       0.97263738606270       0.71563612082791
H         1.91120177147384      -0.68231734300611       1.17819160026609
H         4.23885998753875      -0.64806448101691       0.29980103765269
H         3.15865949448738      -1.64037488175729      -0.74900841259355
H         3.65215648140015       0.02484384093110      -1.26778986538685
C         4.30408873857068      -2.40814646724733       2.86663529629217
C         2.97190635179711      -3.03167054175750       2.59154707017652
O         2.08782869155900      -2.97471073395608       3.43049272826025
O         2.76293364262482      -3.59431532606477       1.52892521653321
H         4.17778881457942      -1.31773632275676       3.03248543465592
H         4.75101330451863      -2.86599070936995       3.77381824800100
H         4.99446309780699      -2.56345216034214       2.01023030886183
