24
C4H12F6NP optimized with ForceField in AMS.
N        -0.01136723430702      -0.00608492641359      -0.00060206988332
C        -0.91974542455317      -1.11809334374681       0.35760724981152
C         0.65769243807338       0.49615510909373       1.22036147640852
C        -0.79087315207305       1.08841037466323      -0.62117730330208
C         1.00700361492157      -0.49108676483035      -0.95878883926646
H        -0.35810117863143      -1.95502847461577       0.82990279460217
H        -1.70007311077280      -0.78039403955854       1.07598124623904
H        -1.43606490965812      -1.51794235498152      -0.54384067287666
H         1.34279582094705       1.33992339421478       0.98182378683011
H        -0.08771928354473       0.86079968997202       1.96221861231286
H         1.25782874260640      -0.30592590192719       1.70563534864423
H        -0.13164551142722       1.94310302065186      -0.89371115099576
H        -1.29991021314322       0.74032632013763      -1.54780075707329
H        -1.57024095132652       1.46869745731734       0.07658155576275
H         1.67420829718461       0.33729592190609      -1.28416633866393
H         1.63982034107643      -1.28489012574229      -0.50160881619027
H         0.52892046112172      -0.91591065938127      -1.86959096537148
P         5.14195707155142       0.07329912697314       0.96449545159168
F         5.44761137890986      -1.03911467858460      -0.30907424124340
F         6.47363246757979      -0.53499469535257       1.86423639062907
F         6.20499789083293       1.21831429784803       0.24995349052010
F         4.76229881669371       1.15250539278441       2.24648340643962
F         3.88406779749640       0.78526690833529       0.03956517288080
F         4.05994947874199      -1.07614254986306       1.64387794259417
