31
C7H16F6NP optimized with DFTB in AMS.
N        -0.28480056995849       0.50930550196016       0.19124611693492
C        -0.46888297005276      -0.87778297655136      -0.33623725384030
C        -1.48558734728486       0.69378820085629       1.07389864429969
C        -1.97157790700362      -1.00601783673466      -0.59355550538931
C        -2.63296668735981       0.05022651675776       0.30737771066091
C         0.95879299274705       0.66524442328150       1.01187607456181
C        -0.29334905661900       1.49043025950795      -0.93176956804771
C         2.24133058702973       0.48335629125728       0.21687933293427
H        -0.14059109916472      -1.57599098080122       0.43752499473300
H         0.13623861683749      -1.01840699848825      -1.23188119352766
H        -1.63663683891417       1.75106126742551       1.27951858704225
H        -1.28672485959617       0.16141940779749       2.00718545573319
H        -2.30716154298556      -2.01478102143981      -0.34583466155486
H        -2.20003145327163      -0.82029455743173      -1.64468294596043
H        -3.16098388100405       0.79850372418317      -0.28713060271926
H        -3.34616136932370      -0.39862299895804       0.99994968161202
H         0.91573360444555       1.66749533517746       1.44506848462996
H         0.90670246105743      -0.07330522236757       1.81632358166162
H         0.43048892903364       1.18044300250313      -1.68198033517001
H        -1.28747611409134       1.52377420348085      -1.36825063278261
H        -0.04070388908823       2.47304008812620      -0.54331874408173
H         3.07647646004307       0.53087772231349       0.91526480035650
H         2.26786873064798      -0.48238432345735      -0.28681442551464
H         2.36996906319370       1.27440214876898      -0.51961304635333
P        -1.35429881735535       4.54853377556914       0.79124340403744
F        -2.31422979022693       4.32495333095616       2.09569011870367
F        -2.18774948932755       3.29949667610516       0.01004888408764
F        -2.37400211091518       5.63185897949320       0.14934351748898
F        -0.36205481912961       4.63484182048309      -0.52911552032625
F        -0.49747070266481       5.69810729565706       1.55131872558045
F        -0.29895161169808       3.36597251506893       1.42221921150975
