39
C11H21BF4N2 optimized with ADF in AMS.
N        -0.30797160544441      -1.24583158477731       0.73120471377877
N         1.84821522214948      -1.09125529253654       0.92448116782297
C        -1.69664043425997      -0.97237090188733       0.32168946127754
C         3.22852787397118      -0.59117209222969       0.76828992837487
C        -1.86118427673080      -0.95043879805239      -1.20114060446498
C         3.37519245584307       0.84858462164966       1.23820003653986
C         0.74739169105775      -0.44464932143543       0.52244500634985
C         0.13878623077176      -2.44292457967851       1.25454378994847
C         1.49440729537410      -2.34189682518548       1.37712044302705
C        -1.68721470353776       0.43747434318229      -1.81850220235344
C         2.99372035593712       1.07386983547857       2.69938100318847
C        -1.74001434503417       0.39046147558368      -3.34203255987470
C         3.14735610533136       2.53510904348199       3.11522523768644
H        -2.30016576050501      -1.76460850597433       0.78730882958605
H        -1.99877104965994      -0.01442358981348       0.77407857110055
H         3.86039135614323      -1.27007843709084       1.36085922086702
H         3.48134059615849      -0.67906612737371      -0.30188838802233
H        -2.86913397257918      -1.33321925541872      -1.44074375863724
H        -1.13030243863031      -1.64764448223494      -1.64550921141020
H         2.79621407991076       1.50531207947106       0.56646903782572
H         4.43220341948405       1.12372748278596       1.07447574821208
H         0.75344386865978       0.51113039081208       0.00552069143045
H        -0.53908373824617      -3.25310302761877       1.49052327737830
H         2.23050875696719      -3.04982807728276       1.73646739641632
H        -2.47589416397399       1.10509258287864      -1.42108820083777
H        -0.71570584166185       0.86690159081427      -1.52689584796313
H         1.94934195647562       0.75309114764987       2.86708990063970
H         3.62067887170160       0.43160492340364       3.34635285534083
H        -2.67514095664178      -0.07349185064988      -3.69694166947479
H        -0.88423060900796      -0.18238802865590      -3.72806328559456
H        -1.67189211630756       1.40276257798879      -3.76713321200296
H         2.50852172360269       3.18654286492140       2.49766096720530
H         4.18779374194904       2.87343126072714       2.98873405225973
H         2.86695100099971       2.68472154498683       4.16906341502607
B         1.98527171880551       0.15503753895108      -2.47841410881113
F         3.37521668028699      -0.07907476291132      -2.33012878825435
F         1.61433698762239       1.25097892150885      -1.58958526990831
F         1.26770129701565      -1.01153019616547      -2.03887207803014
F         1.63652602680230       0.47791028309700      -3.78999336364234
