41
C13H21F3N2O2 optimized with DFTB in AMS.
N        -1.15504957291182       1.80098669414532      -0.11910004959430
N        -2.77298462994045       0.38116772825883      -0.07974144326716
C         1.29080763906312       2.06982773954724       0.01081849072777
C         1.61197380371051       0.62790851591749      -0.39316032599941
C        -0.01524124377014       2.57034825321264      -0.60601444710968
C         2.95462191062711       0.17489711933628       0.18862258358496
C         3.26937906854515      -1.27182442126380      -0.20495328039224
C        -1.68515672132539       0.75397956833871      -0.74958589242569
C        -1.94712780630277       2.13206725881230       0.94726532058413
C        -2.96737554694471       1.23768319427743       0.97475080099796
C        -3.67911834683782      -0.69290889817868      -0.47832016321855
C         4.60852680388410      -1.72735722015976       0.37221820277877
C        -5.03974656472052      -0.12870170209459      -0.86830642298573
H         2.09243450863785       2.73241277797909      -0.32739154471469
H         1.22812604223329       2.14464713007827       1.10106694150015
H         1.64179190065316       0.55435720662883      -1.48542636079637
H         0.81852167270286      -0.03729175314729      -0.03432209740023
H        -0.18695485116536       3.61478294262107      -0.33760639780525
H        -0.01169438918979       2.48210101054831      -1.69607251012190
H         2.92477233445120       0.25922906721913       1.28046089210122
H         3.74960389411109       0.83430638956764      -0.17536238924853
H         3.29648195633060      -1.35372512081179      -1.29672233389419
H         2.47272686727090      -1.92954372771853       0.15967701508587
H        -1.29115859265797       0.27394015954916      -1.62689871141206
H        -1.73046693771781       2.97752146392579       1.57590552134633
H        -3.80491954652368       1.14160730776091       1.64242875329420
H        -3.21603921424192      -1.20870135377656      -1.32354144843823
H        -3.76556313306910      -1.39231361216760       0.36002066324150
H         4.59407396447736      -1.67222701175619       1.46161923876906
H         5.41790721812725      -1.09585243731334       0.00362276275395
H         4.81066048717898      -2.75766549735896       0.07903211985041
H        -5.54367468993071       0.29184517950485       0.00081945701657
H        -5.65191462784172      -0.92901466708594      -1.28160593930669
H        -4.91821449576569       0.65949627302153      -1.61139635483456
C        -3.06242229731693       2.90268708940474      -2.23113751451158
O        -2.16428622027241       2.16908557394978      -2.65811220844423
O        -4.20121087400155       2.67302234312447      -1.85546434102823
C        -2.58269446454981       4.43539679222673      -2.01567231428533
F        -3.48987369959491       5.36556079649876      -2.32116285419692
F        -1.45462633990832       4.73515993870156      -2.68328155031158
F        -2.27881341190316       4.60621412777615      -0.69262503628953
