38
C10H19F6N2P optimized with ForceField in AMS.
N         0.36710552921872      -1.60738381895926       0.32863572712113
N        -1.75614406440736      -0.95050234386748       0.27945890761078
C         1.76718585191649      -1.71606203087742       0.73370372646313
C         2.64920471631602      -0.75640909293438      -0.07674066780293
C        -2.99229070565280      -0.25292544949397       0.62936068184603
C        -0.61369429907174      -0.96614793477318       0.99262107241367
C         2.26982380565439       0.71097137854309       0.16879782711680
C        -0.17442861483326      -2.01829022458214      -0.83575830032093
C        -1.49316896925655      -1.61289244325471      -0.86520994335545
C        -3.21509439357184       0.96407609763425      -0.27784787353547
C         3.22204953525582       1.66205790972363      -0.54702452829500
C        -2.08104445054721       1.98292071189826      -0.16482948565701
H         1.87007135484595      -1.48716248285394       1.81757878180102
H         2.11336179392123      -2.76080919758984       0.57849296319478
H         2.55737519381215      -0.99165925904007      -1.15978782855979
H         3.70774174112927      -0.91782483213993       0.22219822093625
H        -2.95536316423332       0.08122502370617       1.69004630743087
H        -3.84893331551730      -0.95330042677975       0.52818920484323
H        -0.48172859078000      -0.46802457095514       1.94459279252859
H         1.23948796894759       0.90062516119470      -0.20023916982188
H         2.30054045085540       0.92854527897452       1.25732853139871
H         0.35643214057082      -2.54320824023786      -1.61949944750280
H        -2.19495017970187      -1.75973988337535      -1.67606567790210
H        -3.30884010797387       0.63418419268955      -1.33525280953931
H        -4.16817454917136       1.45543637720408       0.01300044911584
H         3.20859721685278       1.47154254998127      -1.64117424418484
H         4.25596142981003       1.53399561934964      -0.16176546119590
H         2.90353596520457       2.71029769800306      -0.36521276812495
H        -1.13997819275213       1.56164113780228      -0.57538670946340
H        -1.92168429903071       2.27294544968845       0.89577255239998
H        -2.33769720778755       2.89198546593575      -0.74809277195361
P         0.91091443196116       0.79062939890351       5.18312325773115
F         2.23006027360810      -0.30612177359481       5.08897818160261
F        -0.11107977798998      -0.47779158285259       4.63790432481057
F         0.56438667936980       0.35905319343265       6.80943533227661
F        -0.41650158778040       1.88097805174085       5.20385126026713
F         1.98224693291733       1.99429156125302       5.77914849583446
F         1.20900295029160       1.30988157460307       3.57417350247202
