35
C11H16F3NO3S optimized with DFTB in AMS.
N         1.04951505911077      -0.64814579293551      -0.28265689450669
C        -1.26479483529856       0.07566058728177       0.08988336067101
C        -2.65049146385697       0.15272971717895      -0.55476474808873
C        -0.20296197052919      -0.28215301023484      -0.95695522862059
C        -3.72257215015400       0.41129763714561       0.50869740676749
C        -5.11060034932829       0.52156457549336      -0.11885858152086
C         1.35325309599030      -1.94195565925126      -0.12165385899725
C         1.80340096632945       0.31770514037590       0.27759463285756
C         2.48759824240680      -2.31887574757076       0.58114596244083
C         2.92798514163029      -0.00725270361723       0.99745161669983
C         3.28113151224323      -1.34761086923727       1.15808295569390
H        -1.26495838473578      -0.69175491073537       0.86779820617704
H        -1.00785407128280       1.03137642661200       0.55710193180620
H        -2.86540401642239      -0.79382171872888      -1.06030690092569
H        -2.66732101392909       0.94999058202785      -1.30637381223422
H        -0.52627661618575      -1.14156933420179      -1.54741924957977
H        -0.00344680937702       0.55997722624298      -1.62518764803194
H        -3.48991878562696       1.33718510079475       1.04566467563548
H        -3.71314520844423      -0.40942526626097       1.23223888006447
H        -5.14375555477156       1.34274335586974      -0.83720194809086
H        -5.85423137518746       0.70838011225872       0.65578995192280
H        -5.37082092854035      -0.40208107875142      -0.63705423386061
H         0.70890472178386      -2.67207067793034      -0.59344696578931
H         1.48222321100951       1.34116632560289       0.12650545281783
H         2.68610465845383      -3.37592620917096       0.70400183808755
H         3.52187615050246       0.78226551440136       1.43986924607855
H         4.16040055378218      -1.61492248719034       1.73133743029211
S        -0.51841000572723      -3.73048028613799       1.63509725252682
O        -0.98761713609242      -4.34312553807976       2.84448493121124
O         0.42957464593474      -4.49538942979347       0.84433526199406
O        -0.14537266303998      -2.31672308810337       1.75238036334942
C        -1.99745578439610      -3.61271930252044       0.51693972496023
F        -2.93637086019766      -2.81592667550187       1.02206341672252
F        -2.54445888193967      -4.78220241637291       0.23418638717053
F        -1.59863205551404      -3.05330234215913      -0.64780926200096
