23
C5H9F6N2P optimized with ForceField in AMS.
N         1.10257452910213       0.00408184837221       0.03217518366409
N        -1.11890423352473       0.04391374894764      -0.00731697956281
C        -0.02170351796659      -0.73741489457338       0.00632618100149
C         0.70457072772224       1.29174686929270       0.03708762031338
C        -0.67558566056363       1.31644083481794       0.01193764985808
C         2.47659660428755      -0.48108270004631       0.02688253174859
C        -2.50834010892751      -0.39156865863521      -0.06082529758166
H        -0.04069294313327      -1.82019868423019      -0.01298664590983
H         1.36640786982703       2.14828050953427       0.04906344267501
H        -1.30648600750100       2.19596245060847       0.00112573547982
H         2.49695458564469      -1.59180077465759       0.01390288184232
H         3.00218689493469      -0.10315096637857      -0.87508604018665
H         3.00340463754373      -0.12275648167323       0.93579323937695
H        -3.06177256987043       0.01497629953173       0.81132678457132
H        -2.97855730573809      -0.02424473303895      -0.99682841876083
H        -2.56901942361359      -1.50072932389353      -0.03964158757732
P        -1.70408976484658      -0.57127010741694       4.45607790069519
F        -2.33255796153314      -1.98222877656218       5.20975088455127
F        -1.92480689001801      -1.38331053594086       2.95846205157385
F        -3.27587034852197       0.12062372728983       4.39098338397717
F        -1.18154746379064       0.87464737547190       3.68810363400582
F        -1.43776517499184       0.05777090472903       6.03302463249268
F        -0.07640970942105      -1.12235633074878       4.46451918335208
