35
C9H17F6N2P optimized with ADF in AMS.
N        -0.38026061052216       1.09577866773172       0.09092148748496
N        -1.70801271832064       0.08432594823159      -1.29910909543594
C         0.50086043058578       1.35356372834267       1.23597934422119
C        -2.62928488640154      -0.90378251290721      -1.88080297483166
C        -1.00956587094739      -0.05614907248798      -0.16424276346144
C         1.97138596722701       1.17337536272995       0.87112440611024
C        -4.02639221642955      -0.84057122674023      -1.26175057946942
C        -0.70074592737529       2.00445358848262      -0.89140303520234
C        -1.53728728298200       1.37350323544547      -1.76265582470434
C         2.32728107467558      -0.25456579471402       0.46878548688016
C        -4.10790288451342      -1.47011800072657       0.12416249574914
H         0.17969764395769       0.67272058057475       2.03705516862937
H         0.26632941999753       2.36910293866190       1.58176706171975
H        -2.17453634859137      -1.89790073463259      -1.74343989460959
H        -2.65287226301162      -0.69433833079805      -2.96096296630568
H        -0.98747098914047      -0.93814463032079       0.46083264420719
H         2.23730707080209       1.87807682579928       0.06271268707769
H         2.55783990799813       1.47666326000594       1.75552250631300
H        -4.34309760211810       0.21457639653486      -1.21082430239990
H        -4.70705821521418      -1.35727873522159      -1.96156712769341
H        -0.35036058250046       3.02812259535380      -0.85656732759251
H        -2.05847347887488       1.73592031391417      -2.63939223674867
H         1.77254805843055      -0.56992591194237      -0.42885378879208
H         2.09677628333674      -0.96061223378520       1.28279109365830
H         3.39957818208539      -0.34424192920502       0.24036278595075
H        -3.45596617183696      -0.95595352607378       0.84337538484800
H        -3.85182059224818      -2.54232128824635       0.08700479191301
H        -5.12649612963277      -1.37352923020906       0.52678479188440
P        -3.29941472211140       1.91480789264862       2.18868072799783
F        -2.26579563901928       0.57570474346892       2.26487445631724
F        -3.07868146950932       2.14846797540727       3.79377808702743
F        -1.97458114468556       2.88271454012560       1.86229511389779
F        -4.28816308291753       3.21337039569583       2.07633830268889
F        -3.44994484519443       1.64925157106182       0.54180755203623
F        -4.57406679159800       0.91232326269406       2.46081615873445
