41
C11H24BF4N optimized with ForceField in AMS.
N         1.98447898999222       0.44166823972640       0.08332404980510
C         2.23460722709616      -0.85937840009141       0.76650949563714
C         3.08586936989991       0.59017941774872      -0.91596177441382
C         0.67073089409321       0.44348621928666      -0.63194539235455
C         3.64054577799949      -1.30500817571666       0.41400112864338
C         3.86573972399542      -0.71170452576043      -0.95035652792686
C         2.05223659294317       1.55924380658052       1.06036263317900
C        -0.56744937547693       0.27637773728146       0.28060124474439
C        -1.83611848678138       0.10661441056102      -0.56565159712182
C        -3.07802719111259      -0.08241879802000       0.31329529364909
C        -4.33936308037579      -0.20671012512064      -0.54953662954583
C        -5.58619558236815      -0.39021720456002       0.31071045181997
H         1.54200363372128      -1.65537631323999       0.40783788047544
H         2.11562805189698      -0.80305624136172       1.87275873667852
H         3.79759665913975       1.40594398469576      -0.64717765671480
H         2.72468682353635       0.83276052379831      -1.94203378117195
H         0.66270022039919      -0.37422600841551      -1.39034287110137
H         0.54996484336393       1.39725372742391      -1.19568542207428
H         3.73463122673800      -2.41264770139728       0.40014347893815
H         4.36708055899654      -0.87462362971384       1.13820711079913
H         4.94290596286503      -0.54378643828154      -1.15415814638686
H         3.44097000794102      -1.38525889926302      -1.72752998181806
H         1.32594752718184       1.42318640636313       1.88928149262278
H         3.05939611248832       1.61736943627446       1.53154128907947
H         1.84277774446777       2.53280383536918       0.56339474616258
H        -0.45323044159720      -0.60809266483470       0.94143776956553
H        -0.69340926718418       1.17859630189747       0.91609973108336
H        -1.72261696767995      -0.77958151353637      -1.22865932514546
H        -1.97062803649173       1.00808077141747      -1.20379008725011
H        -3.18300844947893       0.78837442681923       0.99770010591427
H        -2.95756516976780      -1.00287594722068       0.92689172664217
H        -4.46231923572368       0.70991928802915      -1.16699989066728
H        -4.24226131451429      -1.07935228888764      -1.23188364437767
H        -5.72017459635778       0.48051992670302       0.98708528312689
H        -6.47923199981187      -0.47101441680756      -0.34436814204258
H        -5.50469366669908      -1.31789543686590       0.91584427501362
B         7.81545915154099      -0.41038113589226      -0.21555336737037
F         9.22700003970328      -0.35240478450888      -0.07251909471561
F         7.20710581440664      -0.37810612926841       1.06734417220990
F         7.45644893541470      -1.61374799192228      -0.87941345006735
F         7.37123590340014       0.70275057781083      -0.97797094072325
