22
C4H12BF4N optimized with DFTB in AMS.
N        -0.21437959775981      -0.19946596376844       0.16094274109555
C        -0.85849323842654      -1.54123402386481       0.13516188646951
C         0.30138002384842       0.07903241117279       1.53023869390111
C        -1.21338435603187       0.83821291988717      -0.21459723244577
C         0.91277978888534      -0.17314509989842      -0.80554106290696
H        -0.12088874086218      -2.29237673786600       0.41114317420523
H        -1.68256484769889      -1.54536254730500       0.84772890068891
H        -1.23186208785909      -1.73271940987030      -0.86917187496536
H         0.77917969879680       1.05679895846491       1.53315277542612
H        -0.53838603217183       0.06756867844066       2.22396497520955
H         1.02069007023481      -0.69257122637647       1.79801439340190
H        -0.73539799278589       1.81549558187332      -0.17882209545618
H        -1.57344043747170       0.63269915990567      -1.22100754885010
H        -2.03931318670369       0.79735285927937       0.49445693088741
H         1.37715959549412       0.81125581987084      -0.78288347745904
H         1.64002683911381      -0.93262404992014      -0.52353600149184
H         0.52976837067307      -0.37926637818482      -1.80357049572190
B        -3.00660786218313      -0.26751124490664       2.56001057097425
F        -2.01233891072157      -1.23558450415594       2.86315911254724
F        -4.03548281429204      -0.29234058656576       3.44715876881742
F        -3.43433053670470      -0.53097432916267       1.23027397859213
F        -2.35075765117343       0.99230287075069       2.53166044108084
