35
C11H17F3N2O2 optimized with ADF in AMS.
N         0.94077267803665      -1.29836653195288       0.43650838280510
N        -0.62486358933383      -0.50906563668139      -0.84413233743572
C         1.84917469002094      -1.47267004549432       1.57742947897756
C         2.89278096425989      -0.36089686756599       1.64902840745320
C         2.33669589517084       0.97484724753007       2.13393212045309
C        -0.13784931987504      -0.50770102205513       0.40440891150504
C         1.17030956201119      -1.78185837003370      -0.83336662369942
C         0.18802147592847      -1.28370417478323      -1.63840290051828
C        -1.72234509275299       0.34246018480072      -1.32464097882046
C         3.39222227445616       2.07587574495700       2.06753426314421
C        -1.20606500502505       1.68960198147595      -1.80341216807568
H         1.22885080854755      -1.51089100510681       2.48688139404933
H         2.31429078921063      -2.46058050636319       1.44651619644662
H         3.32895509653529      -0.22048063411713       0.64688195499443
H         3.69620188439255      -0.70513987933618       2.32497705461555
H         1.50244141894756       1.27373453942357       1.47866038319245
H         1.94935681872925       0.86269034608354       3.16510707437571
H        -0.54496005570154       0.04103378075272       1.24232480454998
H         2.03684282374812      -2.38723186829394      -1.06575760991865
H        -2.21591724414665      -0.21834519041700      -2.13265812669823
H        -2.44250898728651       0.43278210220113      -0.49651456768782
H         0.04261362652720      -1.35597437425076      -2.70761399619098
H         3.67628931165822       2.24170534019879       1.01730734960341
H         4.29396052783963       1.80000680652377       2.63713219315799
H         3.00853906854914       3.02282321076862       2.47711672081889
H        -0.74885101794436       2.24688490516732      -0.97368416020921
H        -2.04252773947693       2.27138208041043      -2.21938768436855
H        -0.41828824072029       1.54560285005125      -2.55999600908008
C         2.31051253881030       0.83154052456329      -2.11262625016440
O         1.97551737192931       1.14891213979402      -0.94475698372717
O         1.63105841319322       0.63847871693692      -3.14670916859068
C         3.84649396063039       0.52367225246584      -2.26090898896001
F         4.32136833100163       0.61049311867382      -3.53083738294888
F         4.09012910387032      -0.78399478323069      -1.84040622547975
F         4.64126550955874       1.31869980260360      -1.48064905856860
