46
C12H14F18NP optimized with DFTB in AMS.
N         0.51382338506568       0.37223384126658      -0.35380509144194
C        -0.72147910716543       1.19404555801313      -0.55729320495852
C         0.11637891338354      -0.60836702506245       0.70249603392381
C        -1.87662668103913       0.20530445133688      -0.44629068250937
C        -1.33246936678358      -0.97245305436087       0.38047098325223
C         1.65945651146640       1.21171008515360       0.08008185100682
C         0.88429956911608      -0.33707166221341      -1.60887377373728
H        -0.66852149348923       1.69312451360213      -1.52170067466269
H        -0.75652946928087       1.94084416022980       0.23856191956788
H         0.19069519552826      -0.10351382769201       1.66851110095705
H         0.79796667088681      -1.45912245725572       0.68582762621526
H        -2.19329857883220      -0.13000761242461      -1.43567799715554
H        -2.73077607274417       0.67739045818864       0.04084257448412
H        -1.89754356491049      -1.11236543890972       1.30331704964707
H        -1.37973849700952      -1.90159423255283      -0.19066309622429
H         1.87564038965872       1.93247321322931      -0.70497375043613
H         1.39684092460294       1.72807789724270       1.00125546891434
H         2.52239800923500       0.56884425311554       0.24296454455397
H         0.03209376818173      -0.90793699625877      -1.96753417748743
H         1.17405594483785       0.40008347690126      -2.35210667050145
H         1.72055709968904      -1.00219431215663      -1.40171694833670
P         1.27258692363489       2.87875334923605      -4.09189803661472
F         1.44435399892542       1.19622475776797      -4.20091757119297
F         0.91148582144750       2.77833152213294      -2.39869540143321
F         1.62774068350415       2.99182493694753      -5.71020995170630
C         3.15470333264513       2.79258061331619      -3.53358082941179
C        -0.66370161765162       2.46632928614884      -4.38184757928823
C         0.97371054936537       4.85215588012771      -4.07296128673817
C         4.24898804586278       2.42965145319224      -4.57117202306228
C        -1.86541947839251       3.29589199595102      -3.83634325617703
C         2.06725535520090       5.95613163475470      -4.14514153349498
F         3.24569059640477       1.83380270726613      -2.57201848283146
F         3.51908683783326       3.94169866908559      -2.94108031179754
F        -0.86834824545559       1.27741487042709      -3.73585637733051
F        -0.89334912152564       2.24700041629517      -5.67951539539225
F         0.19922394149006       5.16384322727828      -3.01416676074823
F         0.21789740257586       5.02782924830825      -5.17867536956557
F         5.43932364824138       2.36160827912276      -3.96677704889561
F         4.33325023322847       3.33135901082073      -5.53953973110927
F         4.00455687846143       1.24221883459989      -5.11732106735541
F        -2.98403813570621       2.58718211442027      -4.03432290849888
F        -1.74477210201727       3.45626954683758      -2.50969357690751
F        -2.04410236357158       4.48007411633385      -4.38946114689137
F         2.53039778757944       6.25392817508905      -2.93469478569622
F         1.55591032807908       7.07018732390937      -4.66617992163119
F         3.08636200964305       5.57856576193822      -4.91262161380052
