47
C13H26F3NO3S optimized with ADF in AMS.
N        -1.69451818847210      -0.04447250636276       0.33759175422982
C        -1.88878640878807      -1.36452563824574      -0.40554586857137
C        -2.72826079978690      -0.08893793778396       1.48385847854149
C        -0.29450144208997       0.04647236619190       0.90999114395370
C        -3.36238126499446      -1.68389386055875      -0.23539273921719
C        -3.59880159917175      -1.32387897624947       1.23443725556169
C        -1.99731425765828       1.09867134613106      -0.60532527149693
C         0.81536265004958       0.07808909884843      -0.12397219443980
C        -1.78183646353565       2.47665539711855      -0.01054282667881
C         2.15605761576788      -0.15185420127943       0.57999902940897
C         3.35194257592278      -0.07855414299235      -0.36444124307692
C         4.66652138983972      -0.40874152935321       0.33949187082231
C         5.87624116766931      -0.32690700897833      -0.58612993488174
H        -1.28178615019931      -2.10458991627391       0.13622430617092
H        -1.54773029775058      -1.24690641409088      -1.44133223872335
H        -3.29969030665869       0.84566178087388       1.43937853413939
H        -2.17371423555662      -0.15762485970963       2.43246832848422
H        -0.20349941637339      -0.83768770096807       1.55593264133223
H        -0.27323419569125       0.93125119611095       1.56238093315618
H        -3.55859637633420      -2.74495823448674      -0.44491086535823
H        -3.98956023735102      -1.08351830517099      -0.91517377722032
H        -4.65470891448452      -1.12752506236094       1.46633120654116
H        -3.24248944661633      -2.14755470817484       1.87034410249073
H        -1.35467671449425       0.95542555065429      -1.48622919189006
H        -3.04232013956244       0.96230937325170      -0.92027314386953
H         0.67143522251075      -0.72354729972007      -0.86885708341200
H         0.83998725952526       1.03666267787546      -0.67341689723492
H        -2.12953474143429       3.22323122880848      -0.74003478049442
H        -2.34893643337781       2.62908232000415       0.91881704611217
H        -0.72094380721630       2.67456460249124       0.19262668402995
H         2.12919696925062      -1.14025274880268       1.06899107058995
H         2.28154265791744       0.58646755722530       1.39311965926638
H         3.41625114924980       0.93180229463325      -0.81233359238521
H         3.20198869720443      -0.78368948085406      -1.20411414026122
H         4.80365605145060       0.27968212126901       1.19316356583618
H         4.59557670887245      -1.42275481538694       0.77266144160038
H         5.99252659665804       0.68853199983039      -0.99877790863137
H         6.80344882658841      -0.58295028587308      -0.05253712420304
H         5.77199014648540      -1.02288239151742      -1.43469692090281
S        -0.76530722920333      -2.57459167433688       3.54538790630077
O        -0.81296223354498      -1.11803293755575       3.81178100993427
O        -0.77104317382088      -2.90312587957993       2.09439786314072
O        -1.61215316466539      -3.41732965853640       4.38730830162689
C         0.98739869730363      -3.02901041824027       4.04473869422236
F         1.22702870992977      -2.73005136573101       5.34586131713505
F         1.90439696002804      -2.34508377115259       3.29035777898888
F         1.21886283180885      -4.35450387609097       3.86516367473250
