47
C13H26F3NO3S optimized with ADF in AMS.
N        -1.52973830858067      -0.31171736648929       0.02431983316302
C        -1.62784637175050      -1.47206022086031      -0.95271189557229
C        -2.57639860819926      -0.68559485813748       1.06415015179990
C        -0.16514383698882      -0.24481953688887       0.67251363482477
C        -3.11877795744202      -1.76456196525336      -1.07469089518091
C        -3.72681772049380      -1.32319780195410       0.28164700964722
C        -1.90315486091504       0.96575974179373      -0.69472229921834
C         0.97869118729021      -0.00823905809947      -0.29456864797472
C        -1.76275388269985       2.23069031248982       0.12876093086807
C         2.31528437652034      -0.11986979166247       0.44213915196847
C         3.51266079143868       0.10246207571983      -0.47765718332713
C         4.85065193464689      -0.04473627777113       0.24345702450297
C         6.04543391440562       0.18283945275767      -0.67853400394867
H        -1.12772245760891      -2.32266137078901      -0.47027460978606
H        -1.12892681705107      -1.19676366461491      -1.89019967925601
H        -2.84174078561666       0.21083790560668       1.63917044619631
H        -2.08329353160505      -1.41971166799369       1.72172672667024
H        -0.05345442818265      -1.20650462572169       1.20094917949015
H        -0.21698470572417       0.54437403092895       1.43869061853677
H        -3.25531053892217      -2.84110757060017      -1.24348042625446
H        -3.57366665007332      -1.22081130162215      -1.91700185111538
H        -4.56489702319418      -0.62507274889891       0.13671133539359
H        -4.09442672819539      -2.19263136063895       0.84386333894892
H        -1.26662351470161       1.01379599084275      -1.58974865691879
H        -2.94142643946306       0.83013084769598      -1.02737340354651
H         0.95954496336042      -0.76849850297099      -1.09376911247479
H         0.90827506450813       0.98362447218799      -0.77696159837335
H        -2.13807091374432       3.07241068000639      -0.47165768888284
H        -2.35446376417591       2.19901090790697       1.05419354879514
H        -0.71668376949669       2.44674519094864       0.38431063300723
H         2.38324685246753      -1.12158764290413       0.90114902359116
H         2.34593690182607       0.61106988786174       1.27132048519186
H         3.45089963571117       1.10966208933473      -0.93264760342643
H         3.46880506942224      -0.62174869454898      -1.31279549814955
H         4.88895399020348       0.66890038652069       1.08675590589075
H         4.90902744750669      -1.05443250252842       0.68824723445582
H         6.01900745954550       1.19494966960572      -1.11546941427403
H         6.99725077716954       0.07284308648639      -0.13817083984205
H         6.04303372865627      -0.54046924134138      -1.51033888590710
S        -0.94838307418555      -4.07395116404104       1.89739757505336
O        -0.63193635910062      -2.75805588949401       2.51349781875358
O        -1.91933905055801      -3.97424594471282       0.78355558944792
O        -1.11203362886331      -5.19488404068536       2.81672186276358
C         0.65628211444607      -4.46893400344089       0.99539045399913
F         1.70293281230863      -4.57973269524886       1.85133512417935
F         0.98238991991710      -3.46996158985598       0.09506704868629
F         0.56043667048204      -5.62117766722589       0.28826624080383
