42
C10H22F2N2O4S2 optimized with ForceField in AMS.
N        -0.89092889812252      -0.15175518860382       0.06282166865311
C        -2.02491042096678      -0.27742556243193      -0.90418119848993
C        -1.21992075568206       1.04921215851623       0.89106475413138
C         0.38515203754870       0.07229115163275      -0.69212251358547
C        -2.85522248288852       0.98992688999629      -0.82884414361540
C        -2.64447116338760       1.46680196442204       0.58046279359241
C        -0.82617593478252      -1.36297229961701       0.94343621429352
C         1.64379531478954       0.19235144143126       0.20024456973462
C        -0.45586066700812      -2.66538354244391       0.20997426478722
C         2.86102638235691       0.62746504129743      -0.62413869250354
C         4.11225782548616       0.71482270934727       0.24561077891605
H        -2.70336752280635      -1.12450591233923      -0.64971553487954
H        -1.69264009126389      -0.45027736256678      -1.95344278007193
H        -1.10797942519953       0.87374875249395       1.98566877004575
H        -0.56886119698263       1.92038449955523       0.64727537361305
H         0.55541709530316      -0.75022969728511      -1.42241068759967
H         0.29432006037732       0.99931874320270      -1.30546107533558
H        -2.46155003024378       1.74334149338144      -1.54668340163420
H        -3.93016242840593       0.79844878593326      -1.03955885857031
H        -3.34959276860556       0.94566510442428       1.26538950045696
H        -2.78442382909179       2.56678674802943       0.66565407252284
H        -0.09606115494123      -1.21380372994657       1.76893373102956
H        -1.80888953766455      -1.51920640651938       1.44502156456006
H         1.47990791648081       0.92967142522763       1.01361668931582
H         1.87290878224500      -0.78901751081041       0.66513870722887
H        -0.62767895871968      -3.52811461768426       0.88744449002593
H         0.61690834373465      -2.67117276345313      -0.06936828265477
H        -1.06921477747159      -2.81433400839792      -0.70139403959912
H         3.04141647802166      -0.10463808810554      -1.44146605279517
H         2.66950191250579       1.62349000671747      -1.07959570889162
H         4.33985246637663      -0.27579130832042       0.69392967981398
H         3.96675756391386       1.45929436469563       1.05733205891900
H         4.97704813963679       1.03037612416997      -0.37502498423466
N         1.52427340497718      -6.82281749110111      -2.86688485102736
S         1.60918185820210      -8.44472849535758      -2.67290686382573
S         1.86438663703733      -5.79956993175942      -1.63699254684476
F         0.33403836040348      -8.95327706877691      -1.71413562200549
F         3.49401511529131      -5.90259984566618      -1.26555041600570
O         1.52548234682963      -9.11517390531240      -4.01439543421004
O         2.90164216497607      -8.81632175362102      -2.00197963428057
O         1.06384941131882      -6.17450773275810      -0.42158004290820
O         1.53059887142173      -4.39431192409609      -2.04835422987141
