22
C8H12ClN optimized with DFTB in AMS.
N        -0.31135406319661      -0.11680920445409      -0.46411437094564
C         1.11879920186799      -0.34618604605940      -0.70114691933021
C         1.88797986375776      -0.18015432138829       0.61418766107309
C         3.38957643619840      -0.21274535068538       0.34596996436660
C        -0.75374842548976       1.14732962655312      -0.39036659407812
C        -1.13449501660941      -1.16048487187217      -0.27650933367509
C        -2.08633384072077       1.39915074624439      -0.12554259343544
C        -2.47046581200587      -0.95601592779270      -0.00816726500140
C        -2.96189737102061       0.34289411621548       0.07078221655795
H         1.24679069801929      -1.34914838821309      -1.11434747868390
H         1.46061318654797       0.40843974467237      -1.41648112274639
H         1.59657939119431      -0.97254371252511       1.31126713527480
H         1.62284597305005       0.78548667673187       1.05190907332209
H         3.67888918466336      -1.14922577508751      -0.13282565191285
H         3.92879581828064      -0.11963119231053       1.28802773086653
H         3.66549984479010       0.61996872872443      -0.30064644788859
H         0.00332576428432       1.93135447747033      -0.56693951197037
H        -0.70312911648328      -2.15160375689184      -0.35130125199405
H        -2.42695353559479       2.42541789382182      -0.07618037527899
H        -3.12015082967401      -1.80965500807718       0.13747587216168
H        -4.00987516947315       0.51957517158853       0.28114484465348
Cl        1.81335153151408       2.71556101053496      -1.00055753543519
