42
C12H16F6N2O4S2 optimized with ForceField in AMS.
N         1.73164888854649      -0.06540048091194      -0.48639347631997
C        -0.65294290895253      -0.02226216985644       0.11542874133452
C        -2.08863079271011      -0.03419573156006      -0.42106450142642
C         0.36655987340313      -0.10511406869622      -1.02495355928868
C        -3.10192071538661       0.02763711748308       0.72737149772305
C        -4.53396088767280       0.02520009289124       0.20081340422208
C         2.39319765525131      -1.23233514683366      -0.21658179640443
C         2.32418242400648       1.14158029534273      -0.23461090951079
C         3.68528607920606      -1.20824728173858       0.31418564378793
C         3.61735554278786       1.20160417122244       0.29007384425100
C         4.29959023555726       0.01767484702893       0.56578633750596
H        -0.50427989410108      -0.88831267061742       0.79734370503876
H        -0.48246979515873       0.91305515564312       0.69250194929278
H        -2.25529830133578      -0.96371576540690      -1.00910927429402
H        -2.23764505376330       0.84074055696640      -1.09185697576032
H         0.20534100665467      -1.04357931524399      -1.60142636215333
H         0.21316072174027       0.73854137957591      -1.73486891697326
H        -2.93906261942292       0.95298999153143       1.32202045850228
H        -2.96339620732726      -0.84960950772032       1.39646694457397
H        -4.70744274589247       0.90945241388294      -0.44879930014487
H        -5.24358998526393       0.06662255046135       1.05387775131725
H        -4.73011878534346      -0.90134327875983      -0.37974432586085
H         1.92001647471055      -2.18957298186690      -0.40086925327070
H         1.79400757971116       2.06506411787803      -0.43365498002714
H         4.20298914569808      -2.13318361168053       0.53322417439306
H         4.08310209640317       2.15855806030869       0.48705900240882
H         5.29925684327511       0.04998907741038       0.97916087617001
N         4.15263154513632       5.24044035887583      -3.81784357772219
S         3.81066180095017       6.43145959123117      -4.89021298150537
S         3.04812088005776       4.12670382065373      -3.34039111815851
C         3.09173962127792       7.81749518123716      -4.03097640364033
C         3.38722749577122       2.58128350708305      -4.15652323932320
O         5.08348676153947       6.87869146266655      -5.55194032830876
O         2.84850512046222       5.93676909097815      -5.93445880176720
O         1.65199955235286       4.57319105459679      -3.67627047205748
O         3.16776153065178       3.92581213430225      -1.85671887050085
F         2.85915732759689       8.84516114836300      -4.92477815495295
F         3.96135768142907       8.25338435840909      -3.04940467782400
F         1.89712089909881       7.44088934813638      -3.44815800183140
F         2.44013662593240       1.64462816168038      -3.78855570539275
F         4.64200242547452       2.13129443109851      -3.79220842155954
F         3.34544154224796       2.76204042835409      -5.52611616374214
