28
C8H14F3NO2 optimized with ForceField in AMS.
N         0.58211912926009       0.00268960177431      -0.00191340436179
C        -0.31637716099237       1.06845221651038      -0.52512306588943
C        -0.30284905420557      -1.06891871140880       0.53231002411061
C        -1.73062496878416       0.74032858229106      -0.08395044910278
C        -1.72261682459538      -0.75557806083836       0.09772437667790
C         1.44918380679722       0.54011826253758       1.07331646542129
C         1.43930741776758      -0.52900157936186      -1.08829030280126
H        -0.31060714513583       1.10972896217831      -1.63958392508882
H        -0.03834868373589       2.08825548056902      -0.17179761618231
H        -0.29010595209110      -1.10458490170376       1.64702352341098
H        -0.01721580125965      -2.08772069940207       0.18221118854194
H        -2.48130780760709       1.05619067267117      -0.84060123760284
H        -1.94571970960127       1.23621042088517       0.88861041462495
H        -2.46690165080951      -1.07877953320288       0.85749605903588
H        -1.93717862405848      -1.25336014173770      -0.87403984449629
H         2.11943853095068       1.33818846638149       0.68275154477175
H         0.83990438977899       0.97821381185156       1.89617565794135
H         2.08713898678122      -0.26285275884046       1.50433919987173
H         0.82287453257830      -0.98649484012937      -1.89493688638184
H         2.05346416218365       0.28162177683109      -1.54104303419974
H         2.13083591043373      -1.31162487348041      -0.70308726546994
C         1.45246921839479      -2.60662914270112       5.82768761638738
O         1.97818987873665      -3.56537337995323       5.28413553641633
O         0.95306553612113      -2.74040740081418       6.93344679043942
C         1.41742937666914      -1.27006859445014       5.14719762754898
F         0.10418734148802      -0.88441398349453       4.94992133299280
F         2.05718972828185      -1.33333097636245       3.92212157500480
F         2.05329718215323      -0.33090135359981       5.93830320367895
