43
C13H27NO2 optimized with ForceField in AMS.
N        -1.38131318840935       0.17686618880772      -0.06910856146213
C        -1.65206353602634      -1.01573730830922      -0.92992318319154
C        -2.48514388499301       0.18517545868943       0.93891557146678
C        -0.06544752805893       0.02040869848766       0.63337348439792
C        -3.01964508310618      -1.56695880644990      -0.57017322068276
C        -3.21471323302392      -1.14125734004239       0.85756278589131
C        -1.43657794011220       1.42053666164057      -0.90373225465921
C         1.16931781616929       0.03169259506123      -0.30243414063567
C        -1.15795637174003       2.72209152194232      -0.12926738567451
C         2.44141393823217      -0.34982435164792       0.46613405727412
C         3.67212463766299      -0.32411706768214      -0.44930414478278
C         4.93735250587503      -0.69873623030801       0.31781372625221
H        -1.61420666260846      -0.78820048206199      -2.02016190163255
H        -0.91917925536488      -1.83677166174415      -0.75505619826138
H        -2.12844939417988       0.35752217435596       1.98022091900866
H        -3.23963681258790       0.97871932287198       0.72923084897737
H         0.06892842679175       0.82300512500684       1.39261210146053
H        -0.06631968752339      -0.93472135890339       1.20880924864305
H        -3.79779133930546      -1.10042477747474      -1.21419344366454
H        -3.06340371784162      -2.67326292565739      -0.67470090833886
H        -2.73905074453270      -1.87806177033173       1.54214897282450
H        -4.29313669621234      -1.03881566106700       1.10922408490239
H        -2.44195923898964       1.51372500881489      -1.37569528327904
H        -0.71781411057887       1.36074481845704      -1.75022030659582
H         1.31150264354235       1.04766009858688      -0.72664513402730
H         1.03148851663871      -0.67860091266336      -1.14441936105267
H        -1.80420511984527       2.81337133569159       0.76741845005463
H        -0.09489802915447       2.78488626661770       0.17938053103130
H        -1.36410535459564       3.58998298399263      -0.79023171367304
H         2.32282539417254      -1.37170322541727       0.88980431340237
H         2.59212906878197       0.36621438902887       1.30427426590546
H         3.53258914977615      -1.04371646334344      -1.28564323988487
H         3.80055369732475       0.69376673648515      -0.87828379511295
H         5.81056194051960      -0.66928599289098      -0.36755085763093
H         5.11318484496776       0.01918033694459       1.14733904334356
H         4.84704126012893      -1.72490220001462       0.73390025960330
C         8.99771760674490       0.86118463457294      -0.34512053614131
C         8.99900140906660      -0.63353877928485      -0.27805778321675
O         8.59455897737640      -1.19854868973651       0.72502904261608
O         9.40296897366658      -1.29176068762022      -1.22336996656721
H         7.95997063585796       1.23896212993330      -0.22763782461283
H         9.63028711094693       1.27162731063354       0.47018457551220
H         9.39951465524712       1.21109541552838      -1.32056841268709
