35
C9H20BF4N optimized with DFTB in AMS.
N         0.28893196206768      -0.07142468577140      -0.03531921715944
C        -0.07220521892014      -1.17507531990612      -0.98578326879280
C        -1.02537321842066       0.23784271448318       0.61055564430208
C        -1.40594132017576      -0.75043983144881      -1.58394463835509
C        -2.05608630276848       0.14449185374609      -0.51584595830576
C         1.28103906158142      -0.54967355003135       0.98077821115486
C         0.79903344878009       1.11850935897293      -0.80359436613483
C         2.63037417964033      -0.94759823518229       0.38164343183582
C         1.19183270764426       2.30877486008502       0.05578987319397
C         3.52816881964015      -1.51285885580745       1.48012571603701
H        -0.17471900522814      -2.09063074137622      -0.39812424872934
H         0.71015980805513      -1.29911826502581      -1.73239078653711
H        -0.98943108218211       1.21488056744616       1.09067593337413
H        -1.20776316248167      -0.52558451609324       1.37065943628383
H        -2.01826143483674      -1.62552273951396      -1.80559762668434
H        -1.24117666181257      -0.20235330319288      -2.51386371487234
H        -2.28264873846130       1.13387663143731      -0.91762151519880
H        -2.98350483427075      -0.28791259293887      -0.13602789126828
H         0.82676779322818      -1.41065035317832       1.48054549993163
H         1.40224277886117       0.24657914881089       1.71982153075399
H         1.66271713360143       0.78760860184229      -1.38109670830744
H         0.01549629829235       1.40309711717487      -1.50625691725715
H         2.48984775506013      -1.69794361631256      -0.39916674926456
H         3.11808678861085      -0.08433546879354      -0.07467054039322
H         0.37087298650771       2.67428383455939       0.67238912717369
H         2.04161428586127       2.08082030289788       0.69714520584183
H         1.48849118747089       3.10816202075035      -0.62294999957178
H         3.70056004034932      -0.76955676033879       2.26023970433789
H         3.07607853199884      -2.39612476371584       1.93408097852939
H         4.48831695040319      -1.79520375367496       1.05076155006975
B         2.47162034447130      -0.61562921970981      -3.24783997684591
F         1.16199547112422      -0.05522094657879      -3.34806677823693
F         3.06393473523388      -0.72070351730646      -4.46941482598743
F         2.32912638000944      -1.87435347106201      -2.61308171593183
F         3.20845879036512       0.21269436365311      -2.36721690418550
