29
C9H16N2O2 optimized with DFTB in AMS.
N         0.18989259076422      -0.50620121219289      -0.27058249904022
N        -2.07443896432615      -0.30129308896997      -0.35822342711418
C         1.44518619144910      -0.98407165378145      -0.85932463342041
C         2.62269573473073      -0.54258226851000       0.01204665687973
C        -0.88338409137060      -0.14756467968499      -1.16688546953825
C        -0.39115351628644      -1.25289071207924       0.78261064479263
C        -1.71440117878416      -1.13783168651174       0.73149316900945
C         2.68727119538623       0.97932937977867       0.13082193340160
C        -3.31491021123825      -0.61815100456960      -1.06379158689963
H         1.53584971271664      -0.54461139530109      -1.85702759915312
H         1.43382395543523      -2.07668682168955      -0.95247477244238
H         2.52346934773202      -0.98278598873683       1.00883680925355
H         3.54794442402104      -0.92140765877429      -0.43312723490354
H        -0.77765427838147       0.87850747128206      -1.54197511768337
H         0.24031009998040      -1.74739156569386       1.50056455596394
H        -2.47714617413560      -1.50314882262868       1.39748597154952
H         1.74920979520390       1.36007384958409       0.53739808909744
H         2.85055906951524       1.43334157178354      -0.84798310360767
H         3.50186661401382       1.27352049533483       0.79257650493828
H        -3.41931766039836       0.06174289314962      -1.90926332143117
H        -3.32826494439070      -1.65260736766331      -1.42073380307460
H        -4.14555766664298      -0.46531791026753      -0.37459342361532
C        -1.02652990292002      -2.74267761720168      -3.87460115051727
C        -0.95297315730229      -2.26265591734382      -2.44026526309888
O        -0.92866530114375      -2.99529557042250      -1.49138629390349
O        -0.91509445205043      -0.92814752862139      -2.40838808925151
H        -1.04385834999022      -3.82939321279952      -3.89725190678965
H        -1.92670168165084      -2.34594301007317      -4.34095741094720
H        -0.16297236983634      -2.37135390759573      -4.42379658505427
