43
C11H24F6NP optimized with DFTB in AMS.
N        -0.36948811992935       0.21550177532542      -0.05260427766783
C        -1.26182333698295       0.88551177504063      -1.05888262664401
C        -0.80013400290623      -1.21330367138747       0.09874081424504
C         1.02355292827811       0.23760699235315      -0.63898745639509
C        -0.42144439864957       0.89769709923957       1.29077922657644
C        -2.73820856829158       0.79157397538088      -0.70393739355828
C        -2.27288046074719      -1.36868872368013       0.46339647760519
C        -3.16855088543342      -0.66669448992391      -0.55625257899134
C         2.13110899272090      -0.26482838158262       0.27999918499550
C         0.02625721220695       2.34978802899628       1.30499114385617
C         3.44546883317571      -0.30115219227805      -0.51273554129081
C         4.60416605563581      -0.75717376961177       0.36985631494804
H        -1.07774380063760       0.39074720900457      -2.01615684307986
H        -0.94569329589670       1.92510377638215      -1.14152043164973
H        -0.17153794596605      -1.67208179145230       0.86417663124501
H        -0.60512025541486      -1.70555932687341      -0.85820288872221
H         1.22964297623405       1.26635776009905      -0.92974039037066
H         0.98271186350630      -0.37389833760073      -1.54432467635754
H        -1.45271459162420       0.83218986610360       1.64241708008425
H         0.20122289762030       0.30359909007108       1.96380255144711
H        -3.29879174443495       1.26323193449370      -1.51491705010888
H        -2.95431044659770       1.34567094246315       0.21313590541904
H        -2.46616298236084      -0.97881139658875       1.46611482049919
H        -2.49324521779312      -2.43941350279901       0.47826513435947
H        -4.20949447850565      -0.71817424499331      -0.22924069017880
H        -3.08902466817941      -1.17277852018297      -1.52367758754444
H         1.90623639975898      -1.26499303622822       0.66399713594394
H         2.25405367216618       0.41099172329872       1.12967693565494
H        -0.10445533655293       2.71804503986685       2.32249229581079
H         1.07182827931596       2.45733333379649       1.03258425597160
H        -0.57133306078543       2.96764570741989       0.63905975441950
H         3.65374589420439       0.69923590696300      -0.90054087658049
H         3.33929986173941      -0.98200722588193      -1.36382160233763
H         4.41968808646500      -1.75740584423945       0.76569861632498
H         4.73875976552533      -0.07061657008898       1.20625427549912
H         5.52432162453253      -0.77778024701685      -0.21342399051202
P         2.13104744623492       3.91355963507624      -1.44917772047764
F         1.57708783272928       5.03620498198463      -2.48622082815404
F         0.61405703934673       3.14330505951236      -1.50029548453622
F         2.60553640807152       2.94215131966218      -2.68739666549277
F         2.64482845953795       2.71524020102323      -0.37536777001511
F         3.59376300512045       4.61279357195393      -1.37002085081538
F         1.59045158016298       4.77546907259909      -0.15927402042456
