69
C19H36F6N2O4S2 optimized with ADF in AMS.
N        -0.72247484172007       2.12311724961589      -0.46633141603912
C        -1.44022024456002       2.58376468466991      -1.73828266377379
C        -0.49024566289189       3.31011889690611       0.44948675363570
C        -1.54835504777218       1.05182467048251       0.25762628650417
C         0.61802808144610       1.57651785377812      -0.90341515342344
C        -2.64034862031497       3.47821389610353      -1.48874569030861
C        -1.74807463476592       4.11337836537546       0.73117078866328
C        -2.32901405249550       4.65224602581337      -0.57168745535637
C        -1.41462639341000      -0.35290052112694      -0.31223972226750
C         1.53337977291418       1.07522947924395       0.20183967953798
C        -2.43549388144046      -1.27949304734278       0.35135389926711
C         2.65202321958306       0.23771525307498      -0.42228181077905
C        -2.48737280525563      -2.66241508677467      -0.29274970254655
C         3.65013982162237      -0.29634022305795       0.59963390690381
C        -3.62319824155338      -3.51451300648626       0.27364220408570
C         4.76370634180106      -1.12098021175854      -0.04330304678158
C        -3.64488837026919      -4.93143651866959      -0.29123539471427
C         5.78616269176308      -1.62384662838397       0.97132121079016
H        -0.67092990590147       3.11283606358746      -2.32397660212361
H        -1.74211846306812       1.67066941200675      -2.27297526545281
H        -0.03576731772374       2.91444874440185       1.36801813264490
H         0.25155874465008       3.94358621620993      -0.06620307093051
H        -1.24325773145974       1.08659073546285       1.31445678803214
H        -2.59720940448198       1.37034980367101       0.18363249398504
H         0.39353269129302       0.77077068496788      -1.61657152485672
H         1.10769639806360       2.38800896527424      -1.46358130279935
H        -2.97835883519588       3.82056581903458      -2.47938623839106
H        -3.46922521915816       2.88608329530690      -1.07389777480171
H        -2.50311029990955       3.50130160101161       1.25292807789773
H        -1.46534872623282       4.92947385800824       1.41706554880026
H        -3.25083529167426       5.22101214098149      -0.37422357683921
H        -1.60543005222213       5.34337029469613      -1.04518552606109
H        -1.63139444792330      -0.34282997102861      -1.39218058350153
H        -0.40077971630800      -0.75955993638568      -0.16161093158574
H         0.97928645519697       0.45737129277386       0.92689246057256
H         1.97184519845306       1.91921204284969       0.76024655212672
H        -3.42636179934628      -0.81625718831795       0.26228004625859
H        -2.22333568375315      -1.37229033520459       1.43288002311731
H         3.18877156831579       0.84465562131755      -1.17534392587991
H         2.20160406085780      -0.61017247667848      -0.97080685950661
H        -2.63913558727324      -2.54063128428801      -1.38105222413639
H        -1.52087757187639      -3.18558108654511      -0.15672160614953
H         4.09513464199953       0.54846514703401       1.15767066880261
H         3.11643876079157      -0.91694205583130       1.34366753604593
H        -3.53903253260567      -3.55254834274713       1.37557425903343
H        -4.58068565010095      -3.01369131677868       0.04997966917377
H         4.31632296244355      -1.97766713592609      -0.57962429688911
H         5.27092633890229      -0.50635328328825      -0.80928198340442
H        -4.48610984692241      -5.51137562302100       0.11844217960526
H        -2.71352577067966      -5.47007328481583      -0.05065128106480
H        -3.75214253410667      -4.91380066941841      -1.38771536313089
H         6.26400901558136      -0.78168625910852       1.49741478551700
H         5.30765357767545      -2.26436787534454       1.72916342199709
H         6.57888759834097      -2.21149965782825       0.48476604434044
N        -4.70880238726831       1.10601876689859      -0.78179903930457
S        -5.89350486189296       1.50583769547444       0.24981057914474
S        -4.90969747769092       0.25700290492485      -2.13913553695267
C        -5.64635174179696       0.30059301925399       1.68507119114026
C        -5.62445990551275       1.49566543065420      -3.37927067805292
O        -5.50390618556991       2.78523796553073       0.84041215977734
O        -7.25453829481742       1.25989466842634      -0.19527254704588
O        -5.87190223453710      -0.83221492684243      -2.09839775013445
O        -3.56036385093712       0.02525976277607      -2.66637700750425
F        -6.62275261312612       0.49784938481890       2.59917522201129
F        -4.44577472297295       0.50974214853854       2.29880522895140
F        -5.69335804340632      -0.98640119600768       1.27524327582926
F        -5.71331001778765       0.89860046084731      -4.59109955358751
F        -4.80774178050670       2.57915582746664      -3.50456071588932
F        -6.84426835639889       1.92720248773682      -3.01192282042609
