41
C13H21F3N2O2 optimized with DFTB in AMS.
N        -0.45219021678994      -1.82896395917512       0.64891446512031
N         1.60522304650918      -1.33105160168648       1.03993197023743
C        -1.90645772824153      -1.84473734036204       0.71973997205762
C         2.80592437879073      -0.77645991647457       1.65974750221301
C        -2.49845289711731      -0.88185494141904      -0.31428626664106
C         3.49257564683060       0.21024211086498       0.71681184741225
C         0.35989899253506      -1.14952686672478       1.46537869524889
C         0.29970345570254      -2.44638812463123      -0.31663281683074
C         1.59638081950916      -2.12985005926009      -0.06726624662415
C        -2.09838983295403       0.57249250191211      -0.04652669655048
C         2.57146457391377       1.36149571533779       0.30551105935447
C        -2.70579931528376       1.51322154547212      -1.08501590796292
C         3.29514335936374       2.34534190170704      -0.61208105899927
H        -2.24301911631714      -2.86622053840819       0.52409939473451
H        -2.20070173642765      -1.55844414309760       1.73298370976099
H         2.50583096549982      -0.29709316073666       2.59543646692565
H         3.47811493133438      -1.61366083687898       1.86700564956476
H        -3.58712802179130      -0.97909765095342      -0.27706044894005
H        -2.16593254576525      -1.18025361801977      -1.31290942896431
H         3.84369657751754      -0.33284653667609      -0.16405042319656
H         4.37016375341230       0.60244184815355       1.23766249512283
H         0.05628224500807      -0.57645743890118       2.32417587845010
H        -0.14343703136935      -3.06268465925382      -1.07856076675960
H         2.51820994702555      -2.43286945252337      -0.54112151491358
H        -2.43450842734997       0.86355819778384       0.95448367358855
H        -1.00685543213997       0.66054419523606      -0.07200317988664
H         1.69318775283181       0.96067535041239      -0.21413179660909
H         2.21688438334890       1.88676600582185       1.20004266831196
H        -3.79449849796220       1.45601034190491      -1.06268819519764
H        -2.36332686014811       1.24827389091329      -2.08581668870342
H        -2.40637197608573       2.53967349586015      -0.87481537654222
H         3.64013495206811       1.83937433014396      -1.51426123918477
H         4.15855867349832       2.77584132992559      -0.10392137163974
H         2.62185407098576       3.15288628197440      -0.90045025944385
C         4.78772449707176      -3.74914081907952       0.42965064154001
O         5.82537976158176      -4.36506786261020       0.43962565384907
O         4.45532011136987      -2.60786463343387       0.09047406599202
C         3.47688915869898      -4.58107894033819       1.00458230151328
F         2.81482848508143      -3.83700785419546       1.94339396721986
F         3.72320595946630      -5.76503374384422       1.56872068793892
F         2.55512072358783      -4.79803246594017       0.02556033793357
