38
C10H20F3NO3S optimized with ADF in AMS.
N        -0.66403454588595       0.36148457782657       0.13671486988304
C        -1.04951767897466       1.40587403373404      -0.89306373486701
C        -1.41639782812809      -0.93877578854562      -0.13956880866765
C         0.82971611486495       0.13152104817693      -0.01236144050939
C        -2.54841526351113       1.63646714467342      -0.98830947544212
C        -2.91606823722821      -0.72897676369291      -0.25147228428966
C        -3.27911430686364       0.32831740326979      -1.29019598701673
C        -0.96273733317253       0.84829715164778       1.52515871974918
C         1.44287187684817      -0.91682758378352       0.89830287994401
C         2.94326490415973      -1.00952138820901       0.61977944439968
H        -0.66384966143232       1.03098280408424      -1.85531499849034
H        -0.49935853009650       2.32319746866859      -0.63120101171078
H        -1.17862892878932      -1.61062724130238       0.69997067219240
H        -0.98957111915439      -1.32680539716296      -1.07997049977509
H         1.30060833152399       1.11521938210462       0.15423104674645
H         0.98419708320553      -0.14234534703588      -1.06887568845431
H        -2.71184253793262       2.37917206914283      -1.78687565992430
H        -2.93142923935185       2.08932259597284      -0.05849800922694
H        -3.32295207471740      -0.49202167593329       0.74506764384074
H        -3.34899448627709      -1.70847431939881      -0.50983307809528
H        -4.36795612265498       0.49421048085535      -1.30419569234311
H        -2.99140927563811      -0.01950901174385      -2.30058185825920
H        -0.72125246697268       0.04124485025401       2.22897351679576
H        -0.37115274613789       1.75664579928347       1.70367732644670
H        -2.03218551444026       1.05417484220140       1.61691857603901
H         1.27117229488530      -0.67063145315823       1.95599911151099
H         0.97032192517893      -1.89630668985479       0.73575280864653
H         3.14314582745923      -1.29568323354782      -0.42548602603363
H         3.44958447479328      -0.04989985245080       0.81280494753897
H         3.40119977154012      -1.76768282095230       1.26974097823494
S        -2.17262992661921      -2.18445084184808       3.39184724336766
O        -2.16131190827734      -2.48241857780199       4.82154527901823
O        -0.83382535467373      -2.09507497733800       2.74139689137838
O        -3.11098708216748      -1.13793265753823       2.93427064958770
C        -2.87869346394152      -3.74390224499104       2.61290229799809
F        -4.15783435998594      -3.96100352536838       3.00886625348797
F        -2.14600319483899      -4.84141921452599       2.93147491556801
F        -2.88822365109543      -3.64960466981201       1.23900629513114
