40
C12H25NO2 optimized with DFTB in AMS.
N        -0.21687907919333      -0.80304360322643       0.38348893116776
C        -1.33907461845178      -1.51452807976400      -0.34822617362062
C        -0.88532527698765       0.25508365606424       1.21624453419951
C         0.71221639818946      -0.18263232069171      -0.60886000512427
C        -2.65342195903263      -1.03670620281342       0.26635989210792
C        -2.25230912075263      -0.31676844622621       1.54971098989243
C         0.48905089914989      -1.76942823766606       1.30374084076718
C         1.86360630722479       0.59782495251579       0.02317938198059
C         1.34619788034957      -2.79995095068514       0.58901725831319
C         2.72386633023051       1.22965492345461      -1.07789515954375
C         3.88993559930016       2.01573576213734      -0.48243624725885
H        -1.21288333485438      -2.59833230349674      -0.20354417334472
H        -1.27338748689341      -1.27523749380013      -1.41038061226925
H        -0.27487518106833       0.47598402716516       2.09145562344686
H        -0.98149654404352       1.15578695431409       0.60358881648937
H         1.09929609676639      -0.98493538854912      -1.24060400933069
H         0.11209352977253       0.48631051432417      -1.23215495135206
H        -3.17646380909889      -0.35950344605991      -0.41482978946178
H        -3.29517349079943      -1.88960804970282       0.48936488965648
H        -2.18138703144047      -1.03632095465417       2.36770786003906
H        -2.95112336184765       0.47494883918902       1.82234463859120
H         1.09713005988266      -1.17982676923300       1.99402910558494
H        -0.30983438684918      -2.27806626267193       1.86053204271554
H         1.47341670236203       1.38466254634704       0.67469258209012
H         2.48680200701716      -0.06414962143958       0.62910866905230
H         1.68585563926333      -3.51199645230152       1.34047756113856
H         2.22212552992617      -2.35891870455069       0.11319330443760
H         0.76408131042485      -3.35189427018829      -0.14589758758096
H         3.11038515476166       0.44186149594696      -1.73265564624019
H         2.10450044166175       1.89743170053089      -1.68588166756701
H         4.52899015531177       1.36065366050515       0.11062708064772
H         3.52274545162042       2.81763752584699       0.15911945510435
H         4.48728278391328       2.45479222073367      -1.28112037258268
C        -2.41526234055986      -5.59540167283690       2.09211883549613
C        -1.81453140160693      -4.29180188264870       1.51809492478852
O        -1.20047500583072      -4.38817371439587       0.43448058615879
O        -1.99360534408599      -3.24445577122865       2.18111319776865
H        -3.23530667929400      -5.91310525692421       1.44877285516216
H        -1.65408737475296      -6.37406227531145       2.09356211652459
H        -2.78672228368470      -5.43252073580840       3.10189528225530
