42
C10H22F2N2O4S2 optimized with ForceField in AMS.
N        -0.88219646555814      -0.16594331562738       0.05450151793091
C        -2.01240402565502      -0.26858429975788      -0.91902924294513
C        -1.21397312891585       1.01643149394744       0.90795120739079
C         0.39486088316338       0.07516896086668      -0.69347428051328
C        -2.83318475384668       1.00224535916299      -0.82741646596749
C        -2.63384757059521       1.44745842172562       0.59308610798896
C        -0.82096785022663      -1.39545783932327       0.90965976147521
C         1.65694646717469       0.17818674430779       0.19702406586351
C        -0.48436494451767      -2.68990341494142       0.14819066178300
C         2.86570175675096       0.62253116188818      -0.63520167016562
C         4.13160111651004       0.70517029614673       0.21203585549026
H        -2.69982687201396      -1.11176906437394      -0.67802872064797
H        -1.67715757318278      -0.42544471805919      -1.96981508871158
H        -1.11757433666339       0.81315653731952       1.99911038791407
H        -0.55758663898439       1.89038688167236       0.69153330003510
H         0.56604438145876      -0.72977995673270      -1.44225187484913
H         0.30329276571134       1.01478599479999      -1.28730066364977
H        -2.42553292205127       1.76720708828962      -1.52511422103907
H        -3.90674611538802       0.82085914811577      -1.05318727896114
H        -3.34754959045937       0.91442362465430       1.26002733585863
H        -2.76887430965938       2.54596203308070       0.69993244298548
H        -0.07618740564800      -1.27220370789106       1.72610099422037
H        -1.79865737014762      -1.54818609177191       1.42250493825997
H         1.50048233943380       0.90662449987426       1.02016854111353
H         1.88692811544665      -0.81098061040677       0.64511660458896
H        -0.58094984752556      -3.55219774105705       0.84103795138772
H         0.56011654518209      -2.67793381191874      -0.22269220958280
H        -1.17499131503719      -2.85701725879345      -0.70297631639674
H         3.03538672571682      -0.09880885987023      -1.46432283311749
H         2.66490225920874       1.62357216877699      -1.07214634610354
H         4.36746794064292      -0.28651603630746       0.65335270641904
H         4.00365966847781       1.45053570290811       1.02555784170532
H         4.98342338593097       1.02050590276784      -0.42721280459785
N         3.18570022108937       2.01262444571367      -5.49344867256053
S         3.05529342416467       3.34534056208285      -4.55274350661856
S         3.15490124444212       2.12078272051493      -7.12601153046315
F         1.45725592989363       3.84335705632199      -4.51539252520290
F         4.60126456143835       2.76803218168004      -7.66669043033548
O         3.50764742988187       3.02396212836502      -3.15757783069019
O         3.89847217381328       4.45555380518379      -5.11405192519607
O         2.02943563069696       3.01808363543800      -7.55845251552277
O         2.96951516324690       0.75334638962728      -7.71943757487258
