38
C10H22BF4N optimized with ForceField in AMS.
N        -0.55840224299901       0.30763965314364       0.15442209281129
C        -1.55407795227826       1.23786051567704      -0.46661960107818
C        -0.89351187929580      -1.10894511924544      -0.18343194498567
C         0.77852154076797       0.66778428912647      -0.42516628562932
C        -3.02430854178037       0.89427338858587      -0.16023802213835
C        -2.34479843829608      -1.49586179532768       0.15314291619533
C        -3.33423609861911      -0.55364777473020      -0.52285226711264
C        -0.52984670581694       0.50832850362263       1.62845175868418
C         1.98472634759947      -0.15403351723656       0.09480497926193
C         3.28872941007511       0.32432521801866      -0.55796044443393
C         4.48923147523943      -0.47088064989257      -0.05096746888614
H        -1.44561473381438       1.23253157608204      -1.57641171949917
H        -1.36696874922622       2.28535446201703      -0.13509414609785
H        -0.23524987856546      -1.81377612488334       0.36998449700507
H        -0.73164331253007      -1.29369670015061      -1.27038125673599
H         0.99404548813809       1.74441675925789      -0.22975250046198
H         0.75218471798753       0.55231409864347      -1.53376041143849
H        -3.68168257851786       1.56038144459181      -0.75936318761079
H        -3.26799475531981       1.08441313893522       0.90497382134616
H        -2.50603554742467      -1.49390109574568       1.25191039409871
H        -2.53395193018656      -2.52979989681377      -0.20312457769993
H        -4.36705391816860      -0.80391813500222      -0.19607718892583
H        -3.28192532432160      -0.68283079839897      -1.62598725276552
H        -1.53445944609823       0.42075540374742       2.08477721399276
H         0.09701390957171      -0.25686597233389       2.13228965026803
H        -0.13487153182121       1.51537660238173       1.88818247132994
H         1.85228827164086      -1.22936521855945      -0.14435432814665
H         2.09072899815087      -0.03757331463866       1.19235877930888
H         3.45170461409492       1.40000038605845      -0.32865406559363
H         3.22241387802790       0.20772696452165      -1.66145948477483
H         4.37005521053189      -1.54773538194606      -0.29476769214747
H         4.59479542574360      -0.35247240309812       1.04831756600208
H         5.41509671972472      -0.09767570879563      -0.53751779806151
B        -2.68099583212902      -5.55926431385042      -1.73040627924916
F        -3.33744114515563      -6.80373805263807      -1.92343895149701
F        -3.64807655953909      -4.55083534176027      -1.47766417982673
F        -1.94384904535271      -5.22636958681956      -2.89781633105645
F        -1.79610890273738      -5.65703663104385      -0.62360925025115
