36
C10H19BF4N2 optimized with ADF in AMS.
N         0.90676580207297      -1.52033925982899      -0.12210793045310
N        -0.94291059150736      -0.76894631461356      -0.98013611893412
C         2.06253525752868      -1.69453323382202       0.77060048124917
C         3.09344393126786      -0.58637439145644       0.56876880393810
C        -2.17762790161818       0.00290734607422      -1.18120628418101
C        -0.19796295649297      -0.80413702647550       0.13443597038609
C         2.69776766110967       0.73470411496302       1.22382883805330
C         0.87815315142846      -1.92177224070266      -1.43924887071910
C        -0.28153214660083      -1.45142266794637      -1.97671686206568
C        -1.89700868132171       1.43469453957498      -1.63369897752440
C         3.62168391852334       1.87301129152300       0.79977831848968
C        -1.38763982309520       2.33351936880809      -0.51353284694875
H         1.68262416022101      -1.72020109104861       1.80431946749769
H         2.47906283139894      -2.68639227530587       0.54068890823108
H         3.23840117127340      -0.43600451636910      -0.51506535893038
H         4.05186397020693      -0.94292315983060       0.98695451442071
H        -2.74241760436268      -0.02353531168908      -0.23586136833084
H        -2.75923871735908      -0.54738778397723      -1.93536077614438
H        -0.44095226583827      -0.32838276170468       1.07466525121420
H         1.67360600231780       0.99934452494338       0.91462429408132
H         2.69956944554446       0.61448792336917       2.32446675902901
H         1.70732891070140      -2.44282261378469      -1.89937648173928
H        -0.65160382318031      -1.48540259833372      -2.99261403689186
H        -1.16244598233589       1.40447852603050      -2.45669927260543
H        -2.84447166194168       1.82884383932923      -2.04235372971438
H         3.53045097171381       2.03945625715148      -0.28414760125273
H         4.67340467649174       1.63989589328441       1.03216937708393
H         3.35799525609759       2.81035927249979       1.31311355567468
H        -0.40591207618617       1.99152630184889      -0.15745106943377
H        -2.10139241343087       2.37537132157015       0.32723282889375
H        -1.23930631066311       3.35746230819609      -0.88757967902921
B         1.83393690607364       0.93964936057148      -2.79109444295707
F         2.50952286291750       2.10086956634794      -3.18353613231479
F         2.72127433220110      -0.18391313894934      -2.77066290618578
F         0.73284894320720       0.65813894037693      -3.65980425250352
F         1.31028136843684       1.11414214767572      -1.45814116998314
