38
C10H19F6N2P optimized with ForceField in AMS.
N         1.90552331964228      -0.92120086370256      -0.24418836226396
N         3.13905612894644       0.92316005835597      -0.11810658988110
C        -0.36776919112470      -1.87383572803407      -0.08028533524518
C        -1.04460014158245      -0.51817719704645      -0.33001608786672
C         1.00519588718730      -1.95023434168903      -0.76126863314164
C        -2.45472617388567      -0.47570978616400       0.26701528061481
C        -3.09546365053265       0.89977534713105       0.04390352732979
C         2.36856698413956       0.15390513049739      -0.91098539030138
C         2.40252710265788      -0.83034326860788       1.00669270727670
C        -4.50689623604150       0.95528666460695       0.61790575846898
C         3.16939404582109       0.31453568272426       1.08387873334928
C         3.77816215139370       2.18463716274709      -0.46908100523799
H        -0.24955121895285      -2.04084022186175       1.01247281416024
H        -1.00747374647289      -2.68896166886661      -0.48371012223049
H        -1.10508669674564      -0.33222810614510      -1.42486304386676
H        -0.43410444262522       0.28861408165481       0.13115941037923
H         0.87816823227869      -1.83113244310200      -1.85992704298773
H         1.45597575794636      -2.94963586534821      -0.58602507704616
H        -3.08134213730712      -1.25847801165625      -0.21430197752480
H        -2.40074171788821      -0.68500276848046       1.35830465557600
H        -2.47888866551833       1.68475523168256       0.53402986576677
H        -3.14302424329514       1.11960126789708      -1.04511218644891
H         2.12991900524945       0.38325880886544      -1.94209903106870
H         2.20768369893198      -1.53325733361272       1.80631415922912
H         3.69880922611104       0.68136385896811       1.95349094760945
H        -4.48644645716177       0.76363084762580       1.71185408810315
H        -4.93786952898365       1.96347623678671       0.44178870322405
H        -5.15431380262339       0.20055942530756       0.12282634664975
H         4.87655460028009       2.09677976204865      -0.33623614025892
H         3.56298117541459       2.44910239809294      -1.52651687872565
H         3.39253013681364       2.99273940110366       0.18728534772625
P        -0.41842692814781      -6.10778455073606       1.60232543147048
F         0.62690355371354      -7.31208919900236       0.96269939391654
F         0.54735522368568      -5.95569222239891       3.01515569236968
F         0.56599485868820      -4.92188534353395       0.84737246714770
F        -1.47242660870120      -4.88639463981952       2.19389115716575
F        -1.40327313921618      -6.21518564465102       0.19840984631412
F        -1.32967736519514      -7.33913609793709       2.38063197804824
