51
C13H28F2N2O4S2 optimized with ADF in AMS.
N         0.35228175271432       0.33231536237526      -0.21286852909646
C         0.16615636062404      -0.55989004219926      -1.42901711602893
C        -0.84808273798939       1.24993985622910      -0.08795698082032
C         1.59856052819363       1.17502426319617      -0.47298806002499
C         0.50499072062604      -0.47711194771005       1.06235745685358
C        -1.13377502687361      -1.34172665041899      -1.38650055287622
C        -2.17895635250839       0.51193368284458      -0.05622246217777
C        -2.33757673725979      -0.40711848952578      -1.26733679478921
C         2.10043114466363       1.98277939278644       0.71163924546707
C         1.64886194054002      -1.47289196786125       1.05947737554479
C         3.06335646620006       3.07467159581395       0.23383251427586
C         1.83912033549829      -2.05664603000861       2.46179803966736
C         3.71839535463632       3.80687091996055       1.39868312281182
C         2.98980663057171      -3.05858258008927       2.50264097967803
H         1.05736011293037      -1.19660006419183      -1.50471252154528
H         0.18011554485580       0.12430842172022      -2.29300047625659
H        -0.80219264389515       1.91344181217511      -0.96575597281336
H        -0.69836888142010       1.85881717276827       0.81418779699341
H         1.32723331576602       1.83451122471100      -1.31248802561033
H         2.37558038189950       0.49386515733667      -0.84181187531721
H        -0.45159127774395      -0.98685110091335       1.23258400108971
H         0.63328005930172       0.26352490143817       1.86593077139192
H        -1.12176781921928      -2.06966211546089      -0.55697896282104
H        -1.18519753563706      -1.93682798335335      -2.31251077939678
H        -2.97252155012222       1.27821930253927      -0.03654308452096
H        -2.28477074914108      -0.06006213057294       0.88034076693285
H        -2.40817559750425       0.20803530464363      -2.18347473590550
H        -3.27498423753013      -0.98068101872919      -1.19268188218621
H         2.63497959920044       1.32269366612765       1.41510879019145
H         1.27122136278269       2.46111217480683       1.26346623555394
H         2.58825908230193      -1.00103049309013       0.73644304696263
H         1.45648769227218      -2.29019010649117       0.34626028925895
H         2.50806073557893       3.78974688465717      -0.40069955778687
H         3.83183019422008       2.61708571030913      -0.40763999891752
H         0.90350823604648      -2.54202724335763       2.79765991727979
H         2.03925667133185      -1.23373941130911       3.17274427661988
H         4.31547352846279       3.11009723702329       2.00831134698266
H         2.96732384108458       4.27861721653757       2.05362452845957
H         4.39424424308890       4.59459189986374       1.03489128342239
H         3.93011572470128      -2.58272203898053       2.18477410685433
H         2.80029172467564      -3.90396711812791       1.82302941091442
H         3.13031362788911      -3.45913157951728       3.51692243044564
N         5.50551852852551      -1.35158308585655      -1.96142045991542
S         5.31938261248882       0.12330624121397      -1.38437053912839
S         4.23350727296773      -2.14598645925607      -2.53091988093566
F         4.66174213255635      -0.15662771179903       0.15590212068955
F         3.91961826251512      -1.38850203837106      -3.96606813894632
O         6.61284437973562       0.69617283265573      -1.08951236895761
O         4.28029906917254       0.93286086530547      -2.01315085798411
O         2.99242013683342      -1.95594830351595      -1.77890490869172
O         4.64549745719092      -3.48029151373173      -2.90002498039081
