40
C12H25NO2 optimized with ForceField in AMS.
N        -0.88055261627678      -0.16358452625247       0.06094789630187
C        -2.02596897431523      -0.28587118945669      -0.89253177378305
C        -1.20377026889071       1.02860765149513       0.90466788024617
C         0.38492501988549       0.07417028020830      -0.70805146158714
C        -2.85476511139711       0.98057564817281      -0.80459274622564
C        -2.62734507312666       1.45694373587917       0.60239410398481
C        -0.79932452275400      -1.38372043897498       0.92802160927146
C         1.65664505320828       0.18307820741139       0.16790281684090
C        -0.44564989559515      -2.67914281303436       0.17461799266744
C         2.86118249968781       0.62757418673821      -0.67026266487935
C         4.12207647706379       0.72710156112280       0.18359462350878
H        -2.70319031060273      -1.13186758518068      -0.63120399265517
H        -1.70724197614338      -0.45737063254726      -1.94635720368917
H        -1.09118078205131       0.83947124830925       1.99694531524184
H        -0.55002524609203       1.90072927206209       0.67188886558723
H         0.54717211336982      -0.73584926333820      -1.45321152557980
H         0.28487152353713       1.00949203408994      -1.30696590717840
H        -2.47112425285851       1.73463284618236      -1.52705719415054
H        -3.93192881883778       0.78618033329529      -1.00064424711482
H        -3.33194996204877       0.94489303178445       1.29467491797520
H        -2.75525667871812       2.55806070550512       0.68433674689610
H        -0.05409667718618      -1.24316078055201       1.74122070646519
H        -1.77206703205237      -1.54563372517535       1.44744574664494
H         1.50436442479534       0.91019694346166       0.99224088319029
H         1.89386529258619      -0.80386971592607       0.61662890246383
H        -0.56335049041588      -3.54330871299474       0.86171244575107
H         0.60882081968089      -2.66942142270478      -0.16785589617461
H        -1.10953928051842      -2.84097896949889      -0.69824349634731
H         3.03746556536563      -0.10391240287438      -1.48862697871018
H         2.65711828228550       1.62124492265772      -1.12449841215593
H         4.35993341257317      -0.25807986032771       0.63834651268198
H         3.98322914549363       1.47892424752915       0.98952784826333
H         4.97734701469284       1.04091598332220      -0.45107976162645
C        -3.44971983058875       5.95752843329807       0.59255396440307
C        -4.71588748927274       6.74038219088806       0.74306193396049
O        -5.75392865900484       6.31848083382330       0.25910723539619
O        -4.71654869639054       7.80006256224083       1.34881816420673
H        -3.57250376839762       4.95877520733644       1.06067193812222
H        -3.21572879327022       5.82995920513367      -0.48516431873219
H        -2.60305846321967       6.48260988839121       1.08434247691860
