28
C10H16ClN optimized with DFTB in AMS.
N         1.70208603560264       0.06587805693475      -0.27997762036075
C        -0.72865026836319      -0.06494101018339       0.21321182512323
C        -2.11985800267102      -0.00632565919490      -0.42209554977590
C         0.35863431797636       0.12192738670437      -0.85269439491630
C        -3.21610197155157      -0.18989853157898       0.63232681226468
C        -4.60800053468087      -0.13397282395401       0.00515134816461
C         2.18639644007679      -1.13777788564640       0.15695438978193
C         2.33397382969607       1.26681052029550       0.08696696536798
C         3.44544022955860      -1.25579855504725       0.63876381205579
C         3.77060744868730       1.10781711643358       0.34549681124100
C         4.28070632552272      -0.09488837386545       0.67175893225250
H        -0.58861341058184      -1.03000918197939       0.71010394839912
H        -0.63065429928575       0.71904238247845       0.96903184780377
H        -2.20948500979481      -0.78961830202713      -1.18356558506815
H        -2.25207433546829       0.96008542000665      -0.92125379547464
H         0.27835547375515      -0.66427774514992      -1.61201326155476
H         0.23940726982215       1.09115881174273      -1.34622544488495
H        -3.12605902141893       0.59582602665266       1.38982758659266
H        -3.08080899653828      -1.15450214925774       1.13341929159855
H        -4.76955040291360       0.82887000407217      -0.48196333364728
H        -5.36998514912283      -0.26646259003951       0.77371837822278
H        -4.72443492398796      -0.92312098503348      -0.73937353144640
H         1.53203138158802      -1.99069274038147       0.01621254639250
H         2.08769865976818       2.07407439199765      -0.60268791616824
H         3.83100124677049      -2.21821284082882       0.94526044018178
H         4.36618705447780       2.01181239063924       0.35415802472554
H         5.33003895957453      -0.20905995776771       0.91807370440986
Cl        1.53830475130211       1.93378364987778       1.71408193491910
