34
C10H22ClN optimized with ForceField in AMS.
N        -0.87844783574203      -0.16703080778764       0.03241589764934
C        -1.96814121338610      -0.28068188126517      -0.98511138923135
C        -1.24956003263913       1.01723855248163       0.86656735981638
C         0.42588709327712       0.07605650870859      -0.66588350301134
C        -2.80456112917137       0.98269731598832      -0.92795060176062
C        -2.66027128400482       1.43694840119973       0.49692877895896
C        -0.84625644786099      -1.39172329315848       0.89519411967171
C         1.65129275572198       0.20011995440179       0.27180563320382
C        -0.47748122583368      -2.68952765590342       0.15383044043317
C         2.89751281323731       0.61706507266211      -0.52008209775039
C         4.11825605666162       0.74521824819242       0.38680738232919
H        -2.65691536359883      -1.13054955900307      -0.77155096255656
H        -1.58818540824245      -0.43631009388315      -2.02117808213021
H        -1.19065564403749       0.81906204144534       1.96165447508429
H        -0.59101251174929       1.89452541298651       0.67034203974837
H         0.63162740475100      -0.73521464779822      -1.39865564763616
H         0.35096407952853       1.00980630625393      -1.27024335331713
H        -2.38126155188428       1.74900484906625      -1.61454659939931
H        -3.86783811064092       0.79044068139830      -1.19077891103066
H        -3.39523378026282       0.90328955166620       1.13962899580810
H        -2.80779255891327       2.53484633259091       0.59286512288683
H        -0.13537550123708      -1.26126035351114       1.74002360849218
H        -1.84290478481684      -1.54401647851140       1.36954792625538
H         1.46303347244201       0.95181440423001       1.06633458514102
H         1.85847811641469      -0.77565857272976       0.75831877673722
H        -0.59771699236625      -3.54870826647535       0.84665910229959
H         0.57986762450357      -2.67622826459199      -0.17800068665958
H        -1.13516659886721      -2.86455324225581      -0.72140050027682
H         3.11270249939535      -0.14092661171308      -1.30394649653433
H         2.71828324543564       1.59484500677812      -1.01837297740473
H         4.34745082231247      -0.22936137232684       0.86832338959939
H         3.93752356966366       1.50956846469626       1.17193831188767
H         4.99638810861032       1.05901362645687      -0.21617372325288
Cl        2.00251932689959      -0.20358775318879      -4.27844898765056
