43
C13H27NO2 optimized with DFTB in AMS.
N        -0.45930432723343       0.37169914135304       0.19608883041790
C        -1.32673188181412       1.35977327787049      -0.53017406791058
C        -0.86732880223717      -1.01432754365068      -0.19855818345676
C         0.94551575132654       0.62966154887121      -0.28314665131507
C        -0.56648688533241       0.51924660992468       1.69179296728576
C        -2.80987690046320       1.14744656040067      -0.27574287300807
C        -2.34846380556190      -1.29358028929774       0.04089239232825
C        -3.22789777023313      -0.26788491368482      -0.67441037267100
C         2.03016186929604      -0.23545099955594       0.34888364096912
C        -0.06239188751120       1.84035631261006       2.24918252866484
C         3.39230002681300       0.30179651369451      -0.11331623159156
C         4.53946576034396      -0.46739682769774       0.53571460927415
H        -1.11603888263599       1.23220829963608      -1.59545018692091
H        -0.99559780687208       2.36586212487719      -0.23329695429544
H        -0.25415131322492      -1.71930424066411       0.36667972605796
H        -0.63788471602871      -1.12206504349375      -1.26254543807284
H         1.16798235881226       1.68771554145550      -0.07218834295251
H         0.93777027871944       0.48149388056510      -1.36606473717151
H        -1.61860876211324       0.39174687775062       1.95288099883770
H        -0.01088189339039      -0.31466768461112       2.12873886945775
H        -3.35282363521823       1.87718323880836      -0.88168748378435
H        -3.06097742973351       1.33670525406285       0.77106307898269
H        -2.56932984256158      -1.29733826328080       1.11164216903314
H        -2.55884997330268      -2.29586868168994      -0.34254738937480
H        -4.27539989213824      -0.43846116952998      -0.41438784196657
H        -3.12165139819490      -0.38924196953268      -1.75746537750595
H         1.92341207193684      -1.28612075392897       0.05743055031194
H         1.98556667303126      -0.17974700687245       1.43943673289866
H        -0.23691239500878       1.82821634262632       3.32534167215232
H         1.00129044755710       1.98150371864381       2.06753908228268
H        -0.59238658052410       2.68609512185886       1.81636918986929
H         3.45864592419497       1.36174104918541       0.15140269426612
H         3.46430190317667       0.22000807974423      -1.20291689879289
H         4.49193866294125      -1.52661160193532       0.27581985805268
H         4.49620921140325      -0.37408111915254       1.62177373263745
H         5.49337139859286      -0.06786570030465       0.19160461891793
C         1.80525537434775       5.55221834669772       0.00916933213427
C         1.26417311312747       4.11487406156617       0.18076754273789
O         2.09600157019880       3.23248869779705       0.48626853636958
O         0.03521512308168       3.95437783643663       0.01340375650150
H         2.83575272647923       5.52654611850385      -0.33973871459825
H         1.18113615500721       6.10806144025720      -0.68797284799488
H         1.77400512564633       6.04381021288563       0.98156689034238
