27
C7H13BF4N2 optimized with ForceField in AMS.
N         0.07232091464889      -0.63649894611618      -0.44860457415455
N        -1.98638088393752       0.12790704951753      -0.11012051919807
C         1.45091400398807      -0.73616660555007      -0.92336776200246
C         2.44228136699166      -0.41072764935493       0.19982353135331
C        -0.82738018238890       0.31375587058879      -0.77084242862117
C        -0.53912696517085      -1.44913060676654       0.43750902819426
C        -1.81882656334165      -0.97482888080622       0.64606329715824
C         2.29064756060454       1.02669543333608       0.69563679884826
C        -3.17047982770237       0.97511409565314      -0.15380698669565
H         1.61366870346389      -0.04034283454564      -1.77579344473780
H         1.63684603405536      -1.76741185192142      -1.29287535866069
H         2.29557289137302      -1.11204443723859       1.04919092359616
H         3.47602418850378      -0.55270561121353      -0.18072135086438
H        -0.63336937958240       1.13538412893973      -1.45055636771026
H        -0.08246360958375      -2.31032491238658       0.90826353333126
H        -2.56439907778466      -1.39065979187349       1.31185230504561
H         1.30199319005970       1.16756200627139       1.18165415448722
H         2.38773533046741       1.74162352318058      -0.14887786943931
H         3.08182115023120       1.24902554446135       1.44130143649513
H        -2.99751500095399       1.85365010397092      -0.81091371241004
H        -4.03068627725962       0.39408194632778      -0.54568840797134
H        -3.40848492767276       1.33541069953945       0.86899573275519
B         5.72935588677789       0.60375969033570      -3.04149515201264
F         6.87948748867732       0.53537560411784      -2.21098773889301
F         4.57016735688664       0.74678205594880      -2.23488677107077
F         5.62829248525576      -0.58677256186901      -3.80931061470463
F         5.83915084019336       1.72082461745310      -3.91139539841790
