31
C9H16F3NO2 optimized with ADF in AMS.
N         1.17292382636523      -0.26069494471868       0.25565420754309
C         0.71465815272465       1.19682113555076       0.26445187802174
C         0.21939346323694      -1.08952047138325      -0.57557612433899
C        -0.71077694422762       1.33840714123779       0.75757062171835
C        -1.22618579211844      -0.96439648146301      -0.11270083960899
C        -1.68105788829919       0.49585719097945      -0.06803575375634
C         1.27930961417846      -0.79886141244422       1.65909381303703
C         2.53716345647461      -0.30296716930467      -0.35782890506782
H         0.81272423579530       1.53631686662126      -0.78036118477364
H         1.41572812794381       1.72406156003853       0.93693467928303
H         0.57790402135653      -2.13019068262735      -0.53106036779997
H         0.32456406458908      -0.72566357558882      -1.61081757817776
H        -0.96537516793874       2.40918723180689       0.69592029400304
H        -0.75512489995689       1.08614605107314       1.83041654120366
H        -1.35343366745184      -1.43466037548318       0.87671380505705
H        -1.84524875059997      -1.54904109622113      -0.81405294636029
H        -2.70095370644503       0.56111671278973       0.34319237772458
H        -1.72486932373981       0.89346959149421      -1.09928398412422
H         0.27592361948722      -0.93350283059381       2.07238548181276
H         1.79871864096338      -1.76501510120981       1.60776626873633
H         1.82276066467944      -0.04123731628906       2.25791115962773
H         2.48150446234219       0.11929994704446      -1.36956794943684
H         3.21478090696959       0.29259425499499       0.26689828501396
H         2.87201446094559      -1.34770527594856      -0.39928844304506
C         2.94632403050973       2.40514295793202       3.26580571807458
O         1.93043846544838       1.76875029040361       2.84091102923307
O         3.10855849789849       3.13868233350359       4.24322759546182
C         4.20179331330997       2.18911361417420       2.33797428482545
F         5.31269747303409       2.86128253852155       2.71283843610160
F         3.93738552330533       2.56576656695481       1.02532302754311
F         4.55805867331948       0.84752376565459       2.26195333826792
