46
C14H29NO2 optimized with ForceField in AMS.
N        -1.89277523589787       0.11170009349599      -0.05495617735319
C        -2.08689791667665      -1.10226604631910      -0.90570317678653
C        -3.02592169784453       0.08468502860460       0.92143205044712
C        -0.59394923139463       0.02376631031635       0.68916720503707
C        -3.46711447497009      -1.66244312741994      -0.62276506786146
C        -3.72633377111286      -1.25525729056429       0.79993747096674
C        -1.97880559195632       1.33924895261624      -0.91140109479203
C         0.66576766837927       0.05123603404043      -0.20925545797403
C        -1.74909627106295       2.66132207019667      -0.15632702851759
C         1.93384453952711      -0.16673178007940       0.62588444007729
C         3.18476162065668      -0.16714762438844      -0.26042466578600
C         4.45777399846206      -0.27715722358436       0.58590979970247
C         5.70082514722030      -0.34255553350754      -0.29582808589959
H        -1.35779744629257      -1.90865711391403      -0.66038186451436
H        -1.97590421121584      -0.90055395727119      -1.99575788670103
H        -3.78841456054185       0.86837424362132       0.70562408697920
H        -2.70468427242912       0.24730643285306       1.97581018945095
H        -0.57428939771426      -0.91390045675374       1.29257432817561
H        -0.51286268640788       0.85195312679211       1.42796899804613
H        -3.50158411335545      -2.76705869066663      -0.74541753563529
H        -4.21446389636864      -1.18591442294040      -1.29541058419956
H        -4.81495232024577      -1.17719348667228       1.01207866690906
H        -3.26008918382524      -1.98945109474441       1.49406357239217
H        -1.24954711263717       1.29086776328188      -1.74945558469842
H        -2.97988478012418       1.39224772598455      -1.39845533732397
H         0.60644910175211      -0.73644454069900      -0.98915043386271
H         0.75335420245410       1.03537661155204      -0.71416644447001
H        -2.01794449213709       3.51084770715336      -0.81881766047332
H        -2.37229261332891       2.72613314395363       0.75841007851262
H        -0.68201234589204       2.78113979989793       0.12148797457033
H         1.86538447781232      -1.14067120131272       1.15917904443620
H         2.01572316589378       0.64520624205616       1.38221521782958
H         3.22180360769186       0.77421553584616      -0.85247004941036
H         3.13180178872712      -1.02649888201285      -0.96515831520308
H         4.53768528827899       0.60647079241178       1.25616412112527
H         4.41462650663886      -1.19125382224271       1.21584808899391
H         5.77847324873700       0.57244680101379      -0.92129952308919
H         6.60619434872940      -0.41473195833337       0.34294707816414
H         5.65907865665829      -1.23583514733759      -0.95512044206809
C         4.70404491562425      -4.16958310027193       2.51606994089953
C         4.17433838563804      -4.11626217734418       1.11769031945458
O         4.93744722626721      -4.17923944654372       0.16728590793889
O         2.97437051674186      -4.00556878910143       0.92457013878964
H         5.81112864862316      -4.26382083785054       2.51318411164835
H         4.42485317544942      -3.24064249639155       3.05595975840241
H         4.27132595046873      -5.04391474572071       3.04617112697053
