40
C12H25NO2 optimized with ForceField in AMS.
N        -0.55189279537766       0.31845075406491       0.15255814634482
C        -1.54044324091482       1.25620152964915      -0.47138203242625
C        -0.89988588413788      -1.09832204420252      -0.17731341063758
C         0.78841123581130       0.66168615543809      -0.43025383328708
C        -3.01404308019110       0.91786791141309      -0.17510878287492
C        -2.35517495046406      -1.46868394192374       0.15546078824510
C        -3.32494234058692      -0.52705829000348      -0.54670647507506
C        -0.51719378354075       0.52701005947947       1.62637279310035
C         1.98323241261858      -0.16834826768773       0.10037701372368
C         3.28779077955900       0.25895869943353      -0.58403560326767
C         4.48071083892254      -0.51253987577441      -0.02665750692000
H        -1.42807648814564       1.25407995666408      -1.58073640056188
H        -1.35057759242847       2.30211796007084      -0.13782051299367
H        -0.25288149255711      -1.80801143844248       0.38171152109709
H        -0.73664493842998      -1.29296504451310      -1.26244746630126
H         1.01585742814451       1.73718334831336      -0.24242473678855
H         0.76292434038355       0.54029852006192      -1.53826491742099
H        -3.66576099099064       1.58955308566445      -0.77482793832225
H        -3.26203601207215       1.10138768148657       0.89056635922626
H        -2.52409822257011      -1.44163578186849       1.25294590600915
H        -2.55237076124713      -2.50896137929400      -0.18257178505066
H        -4.36622198158591      -0.77339298036142      -0.24676475903177
H        -3.24255987607888      -0.65760718585686      -1.64856973894896
H        -1.52243499251210       0.46455042309530       2.08583226023442
H         0.09518835541020      -0.24808302332203       2.13425795884227
H        -0.09978163492963       1.52695082260851       1.88036221682736
H         1.82972662286649      -1.24779220296807      -0.10244964210712
H         2.10182613531208      -0.01757150244980       1.19280106551056
H         3.45924238206943       1.34554903121471      -0.42604274597915
H         3.21671516191949       0.07131007334403      -1.67763100792610
H         4.35659703154984      -1.60071547296444      -0.21242889519164
H         4.57844084808739      -0.33531851703860       1.06577756840831
H         5.41130607553584      -0.16996606032748      -0.52582025729222
C         3.45268749124603       3.64761241127047       4.11175730145669
C         3.13755393498698       2.48760562885863       3.22060745170906
O         2.95015915977638       1.38218323601851       3.70194237578720
O         3.06590285733845       2.64234196475187       2.01229290874328
H         2.60837205368041       3.82007966960557       4.81183651902330
H         4.37253676403007       3.43198311086501       4.69509321767278
H         3.61629146851239       4.56927006482659       3.51294005084305
