44
C12H26BF4N optimized with DFTB in AMS.
N        -1.82983941504300       0.18283643577336      -0.13776319153050
C        -2.00262360200515      -1.14432765858898      -0.82423053547736
C        -2.88345362173768       0.23264023679205       0.94493278003131
C        -0.45702922088237       0.26807685167494       0.48335004284700
C        -3.44981292439428      -1.53505411387060      -0.57714999623191
C        -3.66459819059942      -1.07539494930035       0.86200893877610
C        -2.05717572837410       1.27999071045236      -1.15182474517661
C         0.69866507117969      -0.00652496208596      -0.47569563822885
C        -2.21290864235094       2.67542274443552      -0.56626001227197
C         2.01412180740366       0.07427594300135       0.30962740915829
C         3.20647647508907      -0.22980629854337      -0.59980125632479
C         4.52249216184337      -0.16146508010404       0.18016066917811
C         5.71935158785739      -0.44996646366155      -0.72468799777109
H        -1.33524909744165      -1.86519069265806      -0.34795668542986
H        -1.73995252801226      -1.04627154904245      -1.87670269886172
H        -3.53642857849409       1.08345290333981       0.75479163083599
H        -2.39920629764627       0.37295988098182       1.91107602859466
H        -0.44671143323150      -0.46145285075213       1.29892223228448
H        -0.35140419459155       1.27164273766383       0.89891688935502
H        -3.59467022323802      -2.60899471015755      -0.69735307320950
H        -4.12188753554538      -1.00799506019022      -1.25864834176600
H        -4.71807470725378      -0.91808277333580       1.09605447284612
H        -3.25661822302089      -1.81228412827027       1.55854853186863
H        -1.19938854870119       1.26456616830282      -1.82552712014141
H        -2.95463458001358       1.00432772054466      -1.71285621202161
H         0.60320086947288      -0.99673389733437      -0.93194331790319
H         0.72291559439532       0.74125396303914      -1.27069708924147
H        -2.00582231092774       3.38131270118619      -1.37003922326718
H        -3.22173988039950       2.85418058493897      -0.19433998192462
H        -1.49237970835430       2.86422460651701       0.22528269592014
H         1.98861332601095      -0.63290892181559       1.14766693366595
H         2.11855757276536       1.08494000930752       0.71342156123878
H         3.22713396158035       0.50509115667338      -1.40918110876373
H         3.09020547780697      -1.22622512790136      -1.04280222974496
H         4.63088595105974       0.83631687293535       0.61726695613845
H         4.50298513665286      -0.88726439550947       1.00158520311983
H         5.76629399206439       0.27724544472220      -1.53618903143537
H         6.64569252065357      -0.39193584120121      -0.15208611797568
H         5.64088103591128      -1.44861120592557      -1.15821190210169
B         1.15226419733048       3.26659213573645      -1.09054797314937
F         0.22806161997577       2.72024750616138      -2.03422069835572
F         1.23063945677258       4.62630193529567      -1.23401416952499
F         2.37627891430958       2.62852045319268      -1.25495358953332
F         0.64396751862336       2.93507750608046       0.20607312220564
