36
C10H20F3NO2 optimized with DFTB in AMS.
N        -0.15427685764162      -0.21641579893303       0.27684143838353
C        -0.93165759459115       0.20807327950650       1.49708032670339
C        -1.07711689962031      -0.48156739467690      -0.88678522077905
C         0.58076199974617      -1.49589410957975       0.60373138526990
C         0.79257042253212       0.88756628955463      -0.09917172396176
C        -2.02367876732132      -0.75405241857330       1.94122221937227
C        -1.92378111729304       0.69961327593556      -1.32876632453592
C         1.56553123317789      -1.97045820821661      -0.45253467990924
C         1.89796155435007       1.17019687983671       0.90873585537712
H        -0.20685222535984       0.32742518914546       2.30575504610431
H        -1.36192413958079       1.18846769927698       1.27701807175356
H        -0.45667055403154      -0.82602886636826      -1.71427109757168
H        -1.71824794313545      -1.31081444804896      -0.58628608645915
H         1.09150430963711      -1.33497904211690       1.55627977822549
H        -0.18987382061611      -2.25880666077725       0.73803829957623
H         1.22833639798903       0.61961241315493      -1.06407820262253
H         0.19278572468135       1.79062514753852      -0.23143948752673
H        -2.50451359434330      -0.31752120129249       2.81692760479065
H        -2.77684269142725      -0.90435688945869       1.17212984518446
H        -1.61940331569889      -1.72545468136506       2.21429435729404
H        -2.56789985442810       0.34267034890721      -2.13249872202039
H        -2.56093606496436       1.07210115619406      -0.52816835758027
H        -1.32386952929682       1.52149515481892      -1.71814508616633
H         2.03109450506040      -2.87653844228631      -0.06455166168033
H         1.05524589714168      -2.23130911417466      -1.37739482141357
H         2.35054325802391      -1.24427547923749      -0.65827353077838
H         2.50808604874212       1.97890474751056       0.50619911223143
H         1.49866726907638       1.49260570551974       1.86873506265167
H         2.54064581599197       0.30661539289235       1.06477729952787
C        -1.60639463175893      -3.73418347352894      -0.79574698282613
O        -1.97449790786477      -3.21847781679191       0.26864863953942
O        -0.91839371522283      -3.26792831062191      -1.70262863611480
C        -2.10031968542295      -5.24178407232238      -1.00233280354580
F        -1.68435811044315      -5.77187337394276      -2.16076370531963
F        -3.44254447132092      -5.33118675103561      -0.98802178590856
F        -1.64408750216677      -6.04160125344299      -0.01950345756505
