48
C12H26F2N2O4S2 optimized with ADF in AMS.
N        -0.19890667049401       0.52402215039875      -0.74965869251301
C        -1.21286709479016      -0.28592952891017       0.03035815216998
C        -0.55581467542150       1.95690327594212      -0.37376559848447
C         1.21929899192593       0.23093135284257      -0.27876887077406
C        -1.30160596596674       0.40173102009592       1.38548759626871
C        -1.03533544279555       1.89777797771209       1.08303476195711
C        -0.36180264703368       0.27210387985888      -2.23093699154171
C         1.73882057734726      -1.15242765608832      -0.62380818374233
C         0.57298562663222       1.08037315311177      -3.10496278470148
C         3.08213641106342      -1.38381862370495       0.07419516761153
C         3.71098427234227      -2.72208291779100      -0.30567823901645
C         5.01297358286431      -3.01765139067099       0.44396626838782
C         6.13205371669823      -2.01915453918303       0.15216370266315
H        -0.90309865888257      -1.33777157204960       0.05474677342741
H        -2.16021240698593      -0.20254080818338      -0.52435135775169
H        -1.35929382625148       2.26109515936343      -1.06110992779925
H         0.32311532438180       2.59265662108142      -0.52817932640841
H         1.22244940484294       0.40447415789173       0.80524012010603
H         1.84996308389880       1.01931243414007      -0.71024943476342
H        -0.54813493121815      -0.00089600866687       2.07876326288889
H        -2.28674768194765       0.22651750141395       1.84110722470033
H        -1.94682617799132       2.50126514567882       1.19614311794042
H        -0.26984826391833       2.31180575332833       1.75172550492051
H        -0.22217086476502      -0.80916221338622      -2.37846362578346
H        -1.41421900728744       0.50951681806283      -2.45239096128823
H         1.03447870723401      -1.94550630676187      -0.31341835995392
H         1.88358327221348      -1.25507439046282      -1.71326965230941
H         0.32197752599537       0.87292101114943      -4.15583547814112
H         0.47548264139556       2.16067724194117      -2.93267494036885
H         1.62745082712568       0.81722328596701      -2.94951642942279
H         2.93657225658664      -1.33971809887330       1.16942116404025
H         3.76078781442337      -0.55396259675675      -0.17607844729867
H         3.90844409002951      -2.73521395085429      -1.39502810181362
H         2.98630341031896      -3.53447644374267      -0.10819576336893
H         4.80604211568974      -3.03480679245170       1.53058481392846
H         5.34885853595309      -4.03551176144067       0.17708299831683
H         5.87419773139060      -1.00265764048120       0.48563946356885
H         7.06084249636261      -2.30796924508976       0.66710638002149
H         6.34732298453751      -1.97488693799031      -0.92847643334050
N         3.61934088337311       4.24903263958653       0.48771452054721
S         2.75459024225255       4.35212984439384      -0.85256169276580
S         3.40246981328214       3.02271083857319       1.49333702091686
F         1.25665803701486       4.84975048388250      -0.29101312088881
F         4.13756221074033       1.75312271683207       0.68673263934315
O         3.22793005904663       5.46428288938558      -1.64201176103260
O         2.42414090861510       3.08128484936069      -1.50145715966337
O         2.02754851744572       2.54873545578758       1.63734453894083
O         4.22549555162577       3.22020139645764       2.66345737807056
