61
C17H24F18NP optimized with ForceField in AMS.
N        -0.55361907330819       0.09561615359651      -0.09914658297626
C        -1.55293396510090       0.55009268827138      -1.12061228501144
C        -0.89763521775164      -1.30133518383817       0.32473089566126
C         0.78250358148422       0.07245377107374      -0.78971923560658
C        -0.53800825442117       0.99638788077229       1.10607110526273
C        -3.01634237340068       0.45122630629696      -0.65714121106446
C        -2.35174341039534      -1.47167581014415       0.80898493196657
C        -3.34645986127760      -0.97646285797018      -0.23561436095260
C         1.99540775934913      -0.30096988549194       0.09901006947183
C        -0.10674579798541       2.45170047434885       0.84718205753076
C         3.28541201410670      -0.33239413932740      -0.73093542420767
C         4.48825083218610      -0.70962436911799       0.12982372007656
H        -1.46562920896662      -0.07094551573687      -2.04306223795118
H        -1.35243150567940       1.59050265861642      -1.45127487832401
H        -0.24208477764646      -1.63823186423666       1.15626295536695
H        -0.74081125370120      -2.01425884337978      -0.51754344209287
H         0.98983086614913       1.05666109155290      -1.26582439367553
H         0.75684588207407      -0.65237346192711      -1.63655882077663
H        -1.53462920679327       1.04612891117808       1.58533064223859
H         0.12313067914610       0.57830257350119       1.89575283971355
H        -3.68115844273776       0.73705426307042      -1.50089540963772
H        -3.22634125172211       1.16034295623307       0.16980287459056
H        -2.51329040581587      -0.94275045710730       1.77074750526039
H        -2.54303620515066      -2.54971757388478       1.00122900642034
H        -4.37510273965541      -1.01232102105743       0.18364827515422
H        -3.31371445775440      -1.64415835618199      -1.12502613479599
H         1.85261783133568      -1.30301414808275       0.55146434188897
H         2.12879258922173       0.44394537736290       0.90988586815060
H        -0.10795314845423       2.99951656083437       1.81317137453056
H         0.92094941176712       2.51769948342446       0.43951423089936
H        -0.81685788541654       2.97642960927929       0.17812596846318
H         3.46621152023212       0.66781439275950      -1.18162740232318
H         3.18685238668117      -1.07536788987175      -1.55235731786151
H         4.34535607698192      -1.71897599788191       0.57140857275205
H         4.62753668613638       0.03166485952363       0.94546381118346
H         5.40446444891240      -0.72334575063509      -0.49723318714489
P        -3.97818631938706      -2.12693738265475       8.26138564687980
F        -4.63013109629367      -3.63376805653030       7.74263456498066
F        -5.13328827152150      -0.85151852462915       8.16263825978139
F        -2.76903797393666      -3.25315059096831       8.74078740260230
C        -5.18300371643111      -2.53054335547931       9.72731656150577
C        -3.92839332015592      -2.10254585368296       6.32638153070914
C        -2.51544918728200      -0.96135546433299       8.74926522862831
C        -4.95906877579243      -3.85861336052146      10.50043483678625
C        -3.48232044914344      -0.79007640166891       5.64870766205019
C        -2.22273600195091      -0.79618728866677      10.25418663404927
F        -6.48385753502701      -2.58233676582602       9.24082833081506
F        -5.14457763629816      -1.50525927890434      10.65132105789202
F        -5.19886090656733      -2.37128333640375       5.82498820591707
F        -3.06810833674564      -3.09900445677096       5.88624408034116
F        -2.78619485913480       0.31008929002541       8.27660514976162
F        -1.34719645907888      -1.38821363342732       8.13266740631736
F        -5.80359914039751      -3.87964388990120      11.59654235012866
F        -3.66812582351944      -3.98750353486547      10.96592135597907
F        -5.26556624724526      -4.95806698502621       9.71873223202324
F        -3.66998738445455      -0.91206654635147       4.28298832595659
F        -4.23353966782817       0.28625547285154       6.08128920819845
F        -2.14078720653076      -0.54117084037924       5.85868611919684
F        -3.18554901953103      -0.00891251109290      10.85743538490021
F        -1.00719582503243      -0.15236658040363      10.40629569963094
F        -2.13911824024346      -2.00730870281224      10.90427326938862
