29
C7H16BF4N optimized with ADF in AMS.
N         1.20671624100251      -0.44244407322282      -0.46551022641832
C         0.74928522808730       0.97658519376053      -0.78663431167654
C         0.01568133305317      -1.37334626234492      -0.50267198475891
C        -0.36527080153336       1.44498274190732       0.12909929964293
C        -1.11292963975820      -0.93341119415121       0.41582521798199
C        -1.55969626002422       0.49343745267020       0.09688040141046
C         1.88614204301870      -0.50603865545924       0.87367537011720
C         2.18916058984078      -0.87563627721525      -1.51599543631650
H         0.40339837613367       0.93471010702244      -1.83262966263476
H         1.64086830721712       1.61653228847596      -0.73095860515853
H         0.39111363856655      -2.37690562170603      -0.25005722519664
H        -0.32387694106554      -1.38093835607307      -1.55116920312553
H        -0.65466578726114       2.45281333419857      -0.21178470907667
H         0.01486528044847       1.57475298238715       1.15602606547810
H        -0.80196161864164      -1.01343782343497       1.47083364417795
H        -1.94243465346093      -1.64758860788656       0.28177919453938
H        -2.33891503316566       0.81639138772142       0.80550802844652
H        -2.01307526788493       0.51331213792675      -0.91179010243318
H         1.18783401572934      -0.18569307707974       1.65160297243723
H         2.18881696822054      -1.54777277403573       1.04374495855462
H         2.76331102333930       0.15384076972521       0.84913331909771
H         1.68703357794329      -0.83492039308934      -2.49091398105335
H         3.05080538466970      -0.19464475365630      -1.49420449143524
H         2.50059310174720      -1.90380794171404      -1.28888065165132
B         4.21625891681509       1.96595291464143      -0.43299877556399
F         5.29543360194322       2.83860090446357      -0.40912818895016
F         4.62447321211685       0.61080020533573      -0.16490272437837
F         3.55852553129472       1.96929216634498      -1.71274386150981
F         3.22971216560810       2.31844714768796       0.55812684275373
