63
C17H32F6N2O4S2 optimized with ADF in AMS.
N        -1.69840711874399       0.74125245422910      -0.51506706680701
C        -2.69731536945697       1.68487232784909       0.14109783879596
C        -2.11784539209812       0.50291102707806      -1.95028878776203
C        -0.33477538606587       1.41616587688829      -0.54884539609502
C        -1.64318237163138      -0.55250283962311       0.28504471479124
C        -4.13187525247124       1.20037501746348       0.03304142924379
C        -3.54116451481734      -0.01514192829494      -2.08038541577179
C        -4.53500212510283       0.93845719650003      -1.41585607758400
C         0.30258283545932       1.65008041975159       0.80585338677668
C        -0.63597382922547      -1.57864932415392      -0.19754836794627
C         1.58228414102941       2.47541595331709       0.66983740694185
C        -0.69814284962757      -2.80997037414821       0.71102408397446
C         2.23989579257917       2.70759778695611       2.03022493757723
C         0.28747345590889      -3.90041264144785       0.30318300184594
C         3.49435308971427       3.56919729532475       1.93676621527346
C         0.24871963917895      -5.08697985127605       1.26280850038670
H        -2.57232044052349       2.65117086360162      -0.37543269281084
H        -2.41117190553231       1.79449096319391       1.19249608289565
H        -1.38230107530014      -0.18227790201769      -2.39348063950296
H        -2.02188461562951       1.48023930903078      -2.45112130606291
H        -0.49946947594505       2.37008659651032      -1.07664109645310
H         0.30523051093369       0.78646724507624      -1.18672426562095
H        -2.65451308559398      -0.97531850556689       0.26269342062118
H        -1.44117930147525      -0.24756650284976       1.32104631004682
H        -4.75759205738999       1.97898188217830       0.49722302730909
H        -4.27734388211225       0.30287853664776       0.65620969292145
H        -3.62422860645570      -1.02628585814584      -1.64721627227551
H        -3.75416253331676      -0.12185296557564      -3.15744355302093
H        -4.54462982321423       1.89347622050513      -1.97342276060313
H        -5.55533709381967       0.52685364678621      -1.46836249756661
H        -0.39062023638843       2.17604399576587       1.47919588761952
H         0.53738904448935       0.69595098354416       1.30172072205463
H        -0.83639388464883      -1.88501974460200      -1.24002444307802
H         0.38749319881884      -1.16964617895313      -0.15892456779103
H         1.35217417600688       3.45236668543526       0.20310508082222
H         2.29826629099632       1.96464430188226      -0.00232601062854
H        -0.47976488024888      -2.49257948148381       1.74257519465802
H        -1.72504775498859      -3.22153027679952       0.71091269095037
H         2.48184021139177       1.73032649139032       2.48398299104800
H         1.50656459529014       3.18336756054412       2.70444235432887
H         1.30750558350168      -3.47401799716723       0.28493928401332
H         0.06855511311051      -4.23979628353737      -0.72630939581531
H         3.94636301447127       3.72144590809286       2.92838522294758
H         4.25230476864513       3.09959871148831       1.28881407663524
H         3.26197945672070       4.56168043513911       1.51723639423591
H         0.97415778530174      -5.86282938955641       0.97568237833933
H         0.48201478875910      -4.76210527867701       2.28911083877858
H        -0.75266835265576      -5.54723483465834       1.27921136179359
N        -1.65905370106930       0.82547894810713       3.38277791231250
S        -0.74682696873291      -0.25128328974154       4.16855363792097
S        -2.79132956665624       1.71997597080449       4.11245058321348
C        -1.86007653032026      -1.77022903837411       4.44266186194326
C        -1.87581077566152       3.16301730318239       4.92545013883575
O         0.21706698738142      -0.73864454731476       3.17686397342317
O        -0.30104264850062       0.12406106793999       5.50068207834143
O        -3.51194043774715       1.07508337328074       5.19949834273628
O        -3.52430309183560       2.37925093103513       3.02882139145187
F        -1.07264753201547      -2.87103543883402       4.55389660774723
F        -2.69258994642858      -1.95797987052380       3.37912495837421
F        -2.60004587195472      -1.65942933350067       5.55630450675780
F        -2.76232320235623       4.16580403847327       5.13659774023450
F        -0.89381452034786       3.62944879295035       4.10550375926499
F        -1.32922804838248       2.81590740868003       6.10280647541183
