46
C12H23F2N3O4S2 optimized with ForceField in AMS.
N         0.16544492503513       2.26514329807467      -0.16774342775974
N        -1.90571783066830       1.45641209134105      -0.17887907111568
C         1.54526827989366       2.52209208130922      -0.57609829225001
C         2.51374195231868       1.55298596672707       0.11617283761745
C        -3.10276158678829       0.73522450495208      -0.60759409491873
C         2.18622384338928       0.08804656116258      -0.20884232187698
C        -3.18502275600517      -0.64255351042237       0.06405727001474
C        -0.79413741776612       1.67583986532475      -0.90751155311198
C        -0.36023850165719       2.43525674236598       1.06235024514174
C        -1.64559077629150       1.93389394678430       1.05525956789059
C         3.22697219093846      -0.86316652785663       0.38944872963393
C        -2.02642457136760      -1.55589624274451      -0.36205871648629
C         2.84093804235367      -2.31930484858813       0.14179160535736
C        -2.12820041999142      -2.92569203196509       0.30110829432512
H         1.81658208253409       3.56762543297724      -0.31535439519723
H         1.64307981248381       2.41415952878460      -1.67899321356792
H         3.54467998795989       1.78683579303024      -0.22367545206087
H         2.47251456942667       1.71028846995132       1.21611866778735
H        -4.00215897726295       1.33119680280520      -0.34181549851439
H        -3.09843679348302       0.60906876405757      -1.71285748145257
H         2.15220804923770      -0.05085616216262      -1.31201287030035
H         1.18867645973256      -0.16395952995409       0.21046979148335
H        -4.14905349112456      -1.11685272518562      -0.22213027534191
H        -3.18026054826874      -0.51764943680323       1.16897731264944
H        -0.66343109034884       1.35495814873776      -1.93389624783361
H         0.16499017043598       2.85411945822187       1.91092482229156
H        -2.32478778574995       1.88695600621480       1.89655868019583
H         3.30481127443382      -0.69433733504277       1.48570486510856
H         4.22049557586869      -0.66783175097176      -0.07006734800560
H        -2.03721159494298      -1.68614844736996      -1.46615908446376
H        -1.05707663783323      -1.09894320878565      -0.07211969829171
H         2.76768190588087      -2.51956510408247      -0.94850009710861
H         1.86416384188982      -2.54620138570113       0.62107445311871
H         3.61293201030143      -2.98872155400727       0.57599810854208
H        -2.08496621738463      -2.82176039032621       1.40633791647052
H        -1.27897439355010      -3.56126939727250      -0.02815741073128
H        -3.07846328173815      -3.42461413016672       0.01505775822774
N         8.61946815828968       1.34869885580676      -1.59746272654378
S         9.09523291261337       0.40861547164526      -0.34537637534435
S         7.15327155897994       1.15016117557090      -2.29591628795941
F         9.44532466431587      -1.12822695554615      -0.90947199743399
F         5.95969778964147       1.59650335366182      -1.21188320314068
O        10.32258644641061       0.99808441694555       0.28823497170832
O         7.99408108573092       0.31354334564477       0.67285507648274
O         6.95627002997076      -0.29219491004684      -2.66819765057878
O         7.05962246365598       2.00842000120435      -3.52470617755692
