51
C13H28F2N2O4S2 optimized with ADF in AMS.
N         0.36086260830937       0.34407994235062      -0.23960562853115
C         0.13135284468272      -0.51374488885418      -1.47292258186776
C        -0.83639257818073       1.25412683733378      -0.04575160065335
C         1.59529697519822       1.19748616013772      -0.52160026710791
C         0.56035985798758      -0.49994059364860       1.00723874825053
C        -1.16321615876572      -1.30221792105324      -1.40389701738889
C        -2.16349737623617       0.51081836751760       0.01439573112763
C        -2.36474427702302      -0.37665560417758      -1.21382717807557
C         2.13569901977384       1.97545406996869       0.66624442151261
C         1.70165892758836      -1.49490466711243       0.93385426880615
C         3.06962810348878       3.09164848778502       0.18710500234528
C         1.95512691544442      -2.11487428512447       2.30966765254238
C         3.75463256625553       3.80004704325615       1.34952210290463
C         3.11488942258972      -3.10661407963239       2.26903972562085
H         1.02121105157809      -1.14449231814783      -1.60005585626616
H         0.10937137609386       0.19533455555279      -2.31661769258538
H        -0.82414005070251       1.94175861542915      -0.90603201761891
H        -0.65520388510914       1.83818830647233       0.86700824277309
H         1.29221662082663       1.87787675106808      -1.33329965204696
H         2.36045461824544       0.52844418280009      -0.93485385870191
H        -0.39030748694155      -1.01319809326510       1.19908507115209
H         0.71986610572470       0.21927138646304       1.82465726288912
H        -1.11735072997500      -2.05347701668445      -0.59667376950377
H        -1.24746546747324      -1.87109295532206      -2.34411409510646
H        -2.95762893609274       1.27340121972406       0.08320441084191
H        -2.23357043246059      -0.08598129780298       0.93860511851439
H        -2.47249358829474       0.26216720095974      -2.11013056110895
H        -3.29666979717652      -0.95621843044687      -1.11863912845446
H         2.70265187100947       1.29921134335553       1.32794735643214
H         1.32378053327563       2.42781079802746       1.26348915124615
H         2.62646789748424      -1.01489003521168       0.58339766125337
H         1.47967525666630      -2.29426227906913       0.20923703571660
H         2.48562596452605       3.81675496006985      -0.40932419955728
H         3.82145969529222       2.65996902180139      -0.49078886156632
H         1.03916077523349      -2.61817744361397       2.67203799712303
H         2.18097255115343      -1.31081211200331       3.03433741743297
H         4.37531644427231       3.09335636305685       1.92308925570281
H         3.02084358670449       4.24961533032162       2.03868992349823
H         4.41337621148466       4.60179083403627       0.98491851885037
H         4.03621295696235      -2.61129696196328       1.92584908486005
H         2.90350470287637      -3.93156145819838       1.57096914014627
H         3.30281624784592      -3.53786393383549       3.26283832628073
N         5.45081738279853      -1.27853694464863      -2.16382971711452
S         5.32093094483997       0.17014292442561      -1.50662064729986
S         4.14422823996125      -2.03087362969924      -2.71021881412253
F         4.69968917419263      -0.16609666390272       0.03505360774101
F         3.74352650881997      -1.18213388091428      -4.07243314224861
O         6.63722657562159       0.69544072193271      -1.22725508200625
O         4.28486395008716       1.03140134656203      -2.06850896134846
O         2.94940358440493      -1.88963294857224      -1.87672749382604
O         4.52647184393145      -3.33868811330366      -3.18956630135695
