39
C9H16F6N2O4S2 optimized with ADF in AMS.
N         0.50819359779076      -0.49619118313543      -0.40229379880279
C         0.61232275998735      -1.91654894024281       0.19011338343228
C        -0.99310628085850      -0.24233877997651      -0.56949014080406
C        -0.79707035728577      -2.48463804870540       0.13527648497149
C        -1.66966943316581      -1.24685499899344       0.34569217073063
C         1.06936564646884       0.52488991672933       0.57403951850037
C         1.20039447388472      -0.39354095474693      -1.72873519932164
C         2.53693461386087       0.34593329527828       0.90069950968771
H         0.94922714662682      -1.80257113062556       1.22851032230682
H         1.37662849505305      -2.48393057362632      -0.34874106464104
H        -1.23350879740009      -0.45521959418872      -1.62105031634114
H        -1.19881878503727       0.81531158391937      -0.35771520937573
H        -0.93811002890129      -3.26284515416910       0.89848432914912
H        -0.99775017189720      -2.93561237565331      -0.84834394548285
H        -2.72439621459652      -1.39518651604395       0.07232922109171
H        -1.63400620689565      -0.91278363115487       1.39667940907863
H         0.88332164769518       1.51040147656530       0.11900834973033
H         0.44185668873411       0.43663554459190       1.47458386940353
H         2.28122399663605      -0.53141166662599      -1.59815501060206
H         0.81937537003678      -1.18703947650303      -2.38197110307891
H         0.98061946399023       0.59637670442449      -2.15232754132774
H         2.78130279769307       1.02916663616321       1.72795773427956
H         2.78143764573151      -0.67742783378041       1.21887037723292
H         3.18942964554348       0.58407085815524       0.05201645919961
N         3.31975795605250      -2.98286217542359      -2.66917656760807
S         4.07454717762502      -2.66556173308019      -1.28922950038004
S         2.89804229219425      -4.47366194532550      -3.13964134123486
C         5.84294701109462      -3.36981930661554      -1.38277724185293
C         1.13788849174572      -4.66864389416589      -2.47547182657615
O         4.29465007317421      -1.21383975974805      -1.28037976548729
O         3.50010479589352      -3.27466699000241      -0.08370804728781
O         3.63747056810776      -5.56027552827162      -2.51435994317535
O         2.67436422441062      -4.43139360256241      -4.57466182669453
F         6.63538568255170      -2.61085816168327      -0.58375345499769
F         6.31683791168533      -3.30935494182294      -2.64542850700186
F         5.89141650245051      -4.64052833020766      -0.94822766827459
F         0.55287369172219      -5.75418699230781      -3.02592938896886
F         0.36938930164972      -3.57513888372518      -2.79694595641548
F         1.10025622524759      -4.80601144321329      -1.12543170776123
