28
C10H16ClN optimized with ForceField in AMS.
N         1.74268772184347      -0.02696962111239      -0.46235437354022
C        -0.64470807613757      -0.00537008611301       0.10680781841959
C        -2.07592940380440      -0.04586698487312      -0.43709737059923
C         0.38703809270285      -0.09054530808142      -1.02122622463825
C        -3.09160744107467       0.04725447044138       0.70780530478982
C        -4.52450731237436       0.02176213529895       0.18480803626232
C         2.35759176166200      -1.17507119633426      -0.04185481804841
C         2.36656800963755       1.18373065811581      -0.32777137978024
C         3.63906081893876      -1.13097030387475       0.51283968208212
C         3.64613490322068       1.26363174192455       0.22760399658189
C         4.28496205564472       0.09726018905709       0.64594142022978
H        -0.48963323443530      -0.85634016470882       0.80552780812071
H        -0.48902472710731       0.94221271081219       0.66739009832393
H        -2.23246900688060      -0.99592757823891      -0.99433877466723
H        -2.22880222174370       0.80549876070278      -1.13670402099844
H         0.25004012168616      -1.03776383353311      -1.59039222727516
H         0.22703900732182       0.74324966903613      -1.74175614466683
H        -2.93357829247675       0.99215252452627       1.27251375466180
H        -2.94878561536015      -0.80728617020595       1.40492021123002
H        -4.70310780149615       0.88225229380710      -0.49463675231537
H        -5.23070448710704       0.09197442611140       1.03910700582777
H        -4.72003392082077      -0.92589973932881      -0.36068376727722
H         1.85869628806206      -2.13291867993864      -0.13433407824267
H         1.87359020184250       2.09653364665826      -0.64243818725636
H         4.12395040385830      -2.04168947578690       0.83962792571249
H         4.13467027659846       2.22307748696403       0.33657087533427
H         5.27648235282958       0.14560691563410       1.07615426060807
Cl        2.84304868826985      -2.52577818395994      -3.24375049247895
