31
C9H19NO2 optimized with ForceField in AMS.
N         0.83918792623818       0.01432309514489      -0.03218094657012
C         0.07370505944930       1.24372337592391      -0.39209036645182
C         0.07714040585199      -1.21598697062403      -0.39676157362647
C        -1.35318947513814       1.26544769098772       0.18474821593047
C        -1.34892667522291      -1.24466067488730       0.18159607771211
C        -2.12128619777066       0.00943212347450      -0.22040810002423
C         1.19334594786934       0.01223569570329       1.41081828802612
C         2.10806724701429       0.01764425335417      -0.80162914430597
H        -0.01437563104749       1.33073899019846      -1.50008765118114
H         0.61001244566811       2.15538061712701      -0.04313295522986
H         0.61675854346508      -2.12759496408525      -0.05261826733276
H        -0.01192765497821      -1.29880651449871      -1.50503319927116
H        -1.88843664153191       2.15733848114501      -0.20660594148210
H        -1.33055814599588       1.35932934534455       1.29055458269563
H        -1.32490794256053      -1.34065150003232       1.28723131489431
H        -1.88144824403569      -2.13774733005290      -0.21103233874767
H        -3.11690574697089       0.00686213557912       0.27327200190225
H        -2.28335349731981       0.01022660700398      -1.32107499011373
H         0.29999165669988       0.01342782947004       2.06531781184626
H         1.79215326029703      -0.88871256195625       1.67288311039437
H         1.79588848695111       0.90996095752584       1.67455074416402
H         1.91735248811077       0.01751051615945      -1.89855124646504
H         2.71773167392403       0.91952731451085      -0.56672034257716
H         2.72171519068760      -0.88177983596422      -0.56784887287819
C         2.66394367402890       4.25982522112553       1.38032509731648
C         1.52116410269086       5.22439980487968       1.41724527239820
O         1.53520756339830       6.21349467473251       0.70250054816590
O         0.57288361827609       5.02765715598312       2.16031593938127
H         2.75477512251348       3.82798465314158       0.36156434603729
H         3.60605455226916       4.78790597145928       1.63849226026927
H         2.50457031376861       3.43510009682649       2.10737503372344
