40
C12H26ClN optimized with ADF in AMS.
N        -0.57282176276252       0.34596391024100      -0.16690055247582
C        -1.07899763042351      -0.41064342668287      -1.39014404577989
C        -1.75823693793120       0.79809697406404       0.65853147001547
C         0.32691999920067      -0.51945866045473       0.69771195706751
C         0.17869009110899       1.56120770632385      -0.69818450143968
C        -1.97241259934844      -1.57757800979916      -1.01935060986137
C        -2.69439861331850      -0.33834594800999       1.04713885978833
C        -3.16747232027123      -1.12183767344810      -0.17876069274360
C         1.59133479878484      -1.02328113168025       0.03423768065399
C         0.90177161246446       2.38917212691410       0.34763539322592
C         2.41640259253567      -1.84110417977478       1.02776608035227
C         1.53097692776428       3.60440841440308      -0.33751193030060
C         3.69172857196142      -2.37795319345877       0.38042310117242
H        -0.18436430920882      -0.65570335904400      -2.00913145074605
H        -1.64972049927873       0.33821346964778      -1.96419398780870
H        -2.28915013302573       1.53170856674625       0.03155551648876
H        -1.36355467752148       1.31684616632350       1.54332444103638
H        -0.28443637081531      -1.36633618425588       1.03418193420923
H         0.55898990415793       0.09010019613098       1.58576575916458
H        -0.58951366889879       2.16830972220223      -1.20469469153728
H         0.86506982961096       1.16886396737055      -1.49210578175934
H        -1.39951131737510      -2.35869331224045      -0.49076569933080
H        -2.31012096204706      -2.03596577840498      -1.96328106359108
H        -3.54881990558261       0.11178855222222       1.58074768693416
H        -2.20193204628841      -1.01210003673061       1.76748322542649
H        -3.80952329339942      -0.46739977505766      -0.79743497889037
H        -3.78553542070667      -1.97962136427173       0.13281980225039
H         2.19392531996427      -0.19489874700801      -0.36886178234878
H         1.35881688135121      -1.62627590942505      -0.85787293106212
H         0.22374301114440       2.73179484627242       1.14976461970842
H         1.70063171951315       1.79642591024424       0.82104385940684
H         1.81201217726822      -2.68323002452638       1.41457888523935
H         2.67704014871980      -1.21508574152606       1.90203893947265
H         2.08907893545018       4.21545384913031       0.38648179077957
H         2.21991863470636       3.28112635744121      -1.13243795219040
H         0.75959548934431       4.24032545256738      -0.79907860769355
H         4.30745340189102      -1.55251823698021      -0.00859244444816
H         3.45056788442650      -3.02875897773075      -0.47391862289409
H         4.29412177456896      -2.95362066791632       1.09874968884303
Cl        1.69719195366592      -0.07673146451843      -3.14915549963407
