46
C14H30ClN optimized with DFTB in AMS.
N         0.22032388895853       1.44067870234912      -0.13164051532333
C         0.87171061829474       2.37858725629490       0.84413764532894
C        -0.32337198177501       2.35340478401733      -1.19996160716750
C         1.23687909865276       0.51519283745894      -0.73413287384805
C        -0.89325395589567       0.70854476140131       0.55442076099595
C        -0.04481894163525       3.58975357415037       0.89367011987197
C        -0.58067951893355       3.70759099037231      -0.53656566731423
C         1.88864542755866      -0.42720152258283       0.27179142852691
C        -1.55862882728931      -0.37973759184546      -0.28722590578353
C         2.97306274014955      -1.24698584103389      -0.43912321245153
C        -2.79441180243763      -0.91044748364195       0.44905986177519
C         3.66747409910338      -2.20380959488514       0.53471335578506
C        -3.46921207015480      -2.03154897698591      -0.34783410375399
C         4.75959324157546      -3.00905259594795      -0.16625856960662
C        -4.70518169280267      -2.56027307533270       0.37713271313627
H         1.83703204399390       2.66113341439288       0.41188885149149
H         1.00383624062682       1.88461677215854       1.80629331753407
H        -1.21702198039935       1.90962285410868      -1.63715244897141
H         0.45258950166329       2.45609817238307      -1.96118579611288
H         1.99893605987454       1.16397796762902      -1.18244661660232
H         0.74099195057227      -0.04572913544053      -1.52936708653402
H        -1.63523508667580       1.45887585952990       0.83889290542310
H        -0.48478514533666       0.26808640664847       1.46739308929183
H         0.51969721935461       4.47625084130192       1.18513051754708
H        -0.85788547017742       3.44764287021239       1.61092474198903
H        -1.64124061107671       3.96634447761302      -0.54391981947274
H        -0.02939544603537       4.47629186417622      -1.08227753617459
H         1.15239890280408      -1.10749729838566       0.71112526401761
H         2.34572702985109       0.14691121709326       1.08216240410500
H        -0.86388268397637      -1.20565056234150      -0.45887870005870
H        -1.86129110578086       0.01443128535107      -1.26077937153559
H         3.71159401815237      -0.56828472163242      -0.87625812486822
H         2.51842211795661      -1.81906541235025      -1.25496760545202
H        -3.50532236937720      -0.09199034463044       0.60515810363504
H        -2.49713014919846      -1.28777347898333       1.43340103771579
H         2.92718523937908      -2.88757518658345       0.96490861694175
H         4.10853720016912      -1.62880203036970       1.35584295927059
H        -2.75636341669444      -2.84902950950864      -0.49866041234752
H        -3.75790731511877      -1.65267709096154      -1.33385772176347
H         5.24296395818019      -3.68082069710415       0.54322780129687
H         4.33598552558842      -3.60448489217100      -0.97629236015596
H         5.51483308132382      -2.34242603724463      -0.58436503507461
H        -5.16714423045805      -3.35573097346868      -0.20742316717024
H        -4.43331126700531      -2.95994823420164       1.35495958243497
H        -5.43599752495501      -1.76297018005838       0.51847801440720
Cl        2.65545780090638       3.27837580554908      -1.65640589677870
