38
C12H22N2O2 optimized with ADF in AMS.
N         1.88720091717199      -0.60142682793891      -0.33277904989963
N         3.26189354699379       1.05123151630144      -0.10047502870391
C        -0.41231893297298      -1.52517263187347      -0.29918525354068
C        -1.12180239331356      -0.17661435120167      -0.38853088664570
C         0.95207682302418      -1.53171066693206      -0.97707371665439
C        -2.44733907312460      -0.17081585222715       0.36832007334372
C        -3.17716423192560       1.16821081928253       0.28210221620083
C         2.52288380525039       0.37600517018480      -0.99895413506553
C         2.18956212004703      -0.52364618761950       1.01507016825260
C        -4.50201115673199       1.16840956832582       1.04149250738561
C         3.04945321389585       0.52542071763149       1.15993176190838
C         3.89407578747877       2.32532211873110      -0.41302378117502
H        -0.31017734681423      -1.83414629965813       0.75784864899717
H        -1.02132368863016      -2.30773102771843      -0.78641267335181
H        -1.29526977439908       0.06625354964986      -1.45232283104714
H        -0.46707077094726       0.62740933531701      -0.00814796176674
H         0.86407863782657      -1.18263401458940      -2.01779178414676
H         1.40829898172745      -2.53499076262092      -0.96926269456853
H        -3.10325725913905      -0.97254812445547      -0.02386025505461
H        -2.26487871091773      -0.41694811456470       1.43283564596215
H        -2.51642060643648       1.96243997873521       0.67352035316484
H        -3.35372730252845       1.41374690084428      -0.78051364680129
H         2.24099717355724       0.66748014733934      -2.05649579155438
H         1.77819546991607      -1.20705496796905       1.74589555596595
H         3.52112866471493       0.93850707855696       2.04305606716716
H        -4.34477043716268       0.94390050711440       2.10936341695969
H        -5.00811807153085       2.14386039454199       0.97481101902904
H        -5.18759957629706       0.40476934491995       0.63889811030111
H         4.49506326545249       2.64737390604566       0.44465468205810
H         4.54263955648780       2.20383391553379      -1.28927681203457
H         3.08448707937541       3.03740883666138      -0.63925557147719
C        -0.65698579361663       2.82228828962649      -3.06098404830970
C         0.54308359521022       2.09941579148515      -2.44743800622105
O         0.92496075693241       2.48410601601492      -1.30416115425701
O         1.07449314714284       1.16872598470126      -3.14844094039333
H        -1.36936003299198       3.11427707817740      -2.27665717761234
H        -0.29716835132443       3.74586926023008      -3.54282268653573
H        -1.14868855010064       2.20764636271653      -3.82699663097929
