34
C8H20BF4N optimized with DFTB in AMS.
N         0.05636750122632      -0.15360797054821       0.19099449428649
C        -0.87521315016786      -0.29495716288995       1.37230472880875
C        -0.70613693474551       0.02817505636327      -1.09080358387538
C         0.89391453682494      -1.40307770588044       0.07963213324355
C         0.92156414608831       1.06251751834406       0.41577851577239
C        -1.90655370698228      -1.40517970788676       1.25848662408821
C        -1.73804500691862       1.14769653982108      -1.08205656941134
C         1.88592502747172      -1.41427766358297      -1.07178647857309
C         1.91486703315366       0.95570034512954       1.56283793941509
H        -0.24929692915697      -0.49230512655086       2.24449258961497
H        -1.36741350427855       0.67146753461558       1.50371388083809
H         0.02884734601123       0.22780666459160      -1.87360000813970
H        -1.19433729075137      -0.92347646200858      -1.31264229190972
H         1.42354071147184      -1.51828807313678       1.02557859997581
H         0.20175551963666      -2.23949949875692      -0.02386906601186
H         1.45153966161198       1.25628922556372      -0.52073628079654
H         0.24223656721758       1.89808531942032       0.60114468912598
H        -2.53525521007994      -1.34311395416240       2.14685702778288
H        -2.54312100369482      -1.30786003847354       0.37993643704503
H        -1.43052048264736      -2.38340063055195       1.26078689780343
H        -2.17729737741574       1.19580392317747      -2.07868148359483
H        -2.53757926952704       0.95992045194897      -0.36849532113364
H        -1.28678778790164       2.11374764042828      -0.86315347850003
H         2.49177875069990      -2.31359189212470      -0.95952189849045
H         1.39551996314778      -1.45603440926820      -2.04405381084341
H         2.55411302534818      -0.55512021948315      -1.04666989708673
H         2.41042171841670       1.92303529363639       1.65132447651204
H         1.42659569556602       0.72987792384855       2.50807795662470
H         2.67183095579958       0.19685609546391       1.37913752257700
B         1.34050539876824      -2.05832942548297       3.43243272873581
F         1.65472064548536      -2.86868061312039       4.48020771252732
F         2.47321133085499      -1.75033459910564       2.63853814212901
F         0.78185688015820      -0.82751216652666       3.85958813671226
F         0.38361595090847      -2.66614438991168       2.56690045114794
