79
C23H36F18NP optimized with DFTB in AMS.
N         0.74217793503859       1.04969965814718      -0.94208808853240
C         0.31688596285123       1.23096932411616      -2.37103246593192
C         0.54686959556721       2.34024478305060      -0.20157441314093
C        -0.03347503819239      -0.04501024999028      -0.25781698078091
C         2.22242473456293       0.74106168397316      -0.98023031049368
C        -1.11770783276326       1.72180055335377      -2.50039370578742
C        -0.87300912871569       2.88803360080406      -0.30184019230810
C        -1.30101418152098       3.04519686037866      -1.76019144206980
C         0.00113077293048      -1.39353509398312      -0.97402074314818
C         2.83917231952484       0.24858969488125       0.32509826185228
C        -0.41105006122984      -2.50962197813121      -0.00701070758812
C         4.36428966382971       0.17709886305949       0.14861681039558
C        -0.37397456188228      -3.86894736350686      -0.71263548366242
C         5.00988082416892      -0.67045652886318       1.24822574532814
C        -0.66777978747134      -5.00986984678025       0.26496288415156
C         6.49900517599483      -0.88979917781756       0.96213557012321
C        -0.57717461912618      -6.36641746668490      -0.43113318999644
C         7.12485802549710      -1.83935338579255       1.98108361204257
H         1.00294220018406       1.95880121110458      -2.81235542497686
H         0.45223114103440       0.27648890649191      -2.88075112878807
H         0.81648095831936       2.16436822028355       0.84163055147611
H         1.24848592713585       3.06082098756384      -0.63039619882980
H         0.38223477166168      -0.13495729288110       0.74778090931086
H        -1.06647721477480       0.29297765643468      -0.16265324157000
H         2.35978878632242      -0.01352609864293      -1.75149212467873
H         2.71925595530304       1.65556381689371      -1.31371637551715
H        -1.32348153945147       1.85901671079155      -3.56483032839135
H        -1.81794268644561       0.97362739658349      -2.12002162007677
H        -1.57647969968691       2.24228984669461       0.23003471253268
H        -0.88030960072267       3.86198782799493       0.19458742413803
H        -2.34738152093991       3.35509278566857      -1.80486817656213
H        -0.69459187924812       3.82034245608911      -2.23934165457951
H        -0.67877518513105      -1.37988542984679      -1.83000920862577
H         1.00229242554545      -1.60896531044748      -1.34146222251985
H         2.46646571138687      -0.75246018560506       0.55614228148991
H         2.58944319935879       0.91177832239838       1.15862809678257
H        -1.41690411682209      -2.31455770359495       0.38077829279095
H         0.28210085314221      -2.52009127926348       0.84081814003259
H         4.78272277032014       1.18871049980811       0.15312304630252
H         4.58954559532964      -0.27354412415428      -0.82063174110387
H        -1.10788926463637      -3.87754647272564      -1.52535352345887
H         0.61554019978352      -4.01837266851403      -1.15401476628924
H         4.87965076491911      -0.18286741695715       2.22090399521439
H         4.50643734409904      -1.64182532301615       1.29136985186688
H         0.05371227333857      -4.97560712217880       1.08840329010856
H        -1.66881269697369      -4.88061076008299       0.69174203521170
H         6.61359734105890      -1.31181374280860      -0.04044078009523
H         7.02179606683606       0.07250472816762       0.98336234351060
H        -0.78230115212136      -7.16611875808834       0.28070245946110
H         0.42103878387810      -6.51527795360286      -0.84403727336464
H        -1.30209379715433      -6.42894420666471      -1.24391925542274
H         7.04847666841304      -1.42899888060045       2.98968709785904
H         6.61880978937663      -2.80512310294489       1.95883840754900
H         8.17793961319540      -1.99397391725625       1.74652105758072
P         4.96405706278491      -2.81805487905928      -3.40866736151265
F         6.13960217979805      -2.40219831968367      -4.50043777179821
F         4.12558438461499      -3.72104938858861      -4.53984802585108
F         5.70169887385084      -1.87993135152984      -2.20655003514235
C         6.10161194335459      -4.35733651274647      -3.02264609240220
C         3.98574413298371      -1.18252510768535      -4.06712374116025
C         3.52380458306404      -3.23673641641131      -2.01958735679540
C         7.47736842667665      -4.11761312357132      -2.34021127351166
C         2.50963564363254      -1.22672325393735      -4.56078605932116
C         3.70354025132761      -3.94199816970619      -0.64200716484050
F         6.36011195915944      -4.98341696122299      -4.18021279418445
F         5.42956590128169      -5.23118403937054      -2.24486154775948
F         4.63828040430477      -0.68937054195500      -5.13219741414570
F         4.00591617381045      -0.19077939164579      -3.13680080183520
F         2.46796200653447      -3.84395620077542      -2.59475075520700
F         3.08729531990655      -1.98911448063138      -1.66072908477065
F         8.16973159333596      -5.25799334862193      -2.29846514518025
F         7.33188103350494      -3.69037276999265      -1.08629775390896
F         8.20308322673080      -3.22340216378825      -3.00039177454117
F         2.13722269790983       0.02343115398517      -4.89983420998328
F         2.34785754660521      -1.99849780240928      -5.61907317407931
F         1.62734825394604      -1.61137425277843      -3.62552129716249
F         3.46051323855149      -5.24221074229082      -0.70602248267387
F         2.81925212684246      -3.42366519603340       0.23562732079065
F         4.91176053299036      -3.74913152665600      -0.12597054284399
