40
C10H15F6N3O4S2 optimized with DFTB in AMS.
N        -0.81285617195665      -1.24020416234171       0.13409719062065
N         1.12183753851899      -0.92855075277088       1.02404632993856
C        -2.26089506531433      -1.35977646269460      -0.01902332091829
C        -2.77187287177898      -0.39573531293363      -1.08872227958537
C        -0.18853717591321      -0.78302995811177       1.21644761291072
C         0.11750933568197      -1.69291103447854      -0.76478072661733
C         2.13843692568922      -0.68061939381798       2.04144316220860
C         1.33727814077703      -1.49921266176383      -0.20072579900494
C        -2.53360373346482       1.06172219744224      -0.69900620053648
C         2.45990620100229       0.80587522069719       2.12407413922270
H        -2.71404845350850      -1.14453838492635       0.95083905826721
H        -2.47643082099663      -2.39761305632935      -0.28734353629579
H        -2.27979685331083      -0.61094554537262      -2.04211424013191
H        -3.84337890623964      -0.57352106375623      -1.21326571738568
H        -0.66349100647269      -0.38055803123846       2.09435533541129
H        -0.16367009438491      -2.13406153013966      -1.70457476525928
H         1.74305966549746      -1.05540089513546       2.98975436154673
H         3.02028626476073      -1.26553427394837       1.77343076146946
H         2.32596834972324      -1.73625749229495      -0.55177991023069
H        -1.46670846708033       1.25709151043884      -0.58099510403856
H        -3.03538456739023       1.29174427423850       0.24141654216524
H        -2.92397443702258       1.72158271131684      -1.47303969228536
H         2.82946459929249       1.17006953012102       1.16568535834578
H         3.22568032801524       0.96476332066137       2.88170802843212
H         1.57055187221786       1.37331778952779       2.39704196929817
N        -0.23441397840239      -2.78663484085178       2.81305462557446
S        -1.80661266510043      -2.94556643904985       3.09276454440246
S         0.65650811338561      -4.10229049506038       2.56330947455895
C        -2.06476283291375      -3.64307228946615       4.81427563244281
C         0.02047062865832      -5.02052987463984       1.04918759947395
O        -2.30422739745295      -1.58422822451350       3.17340406181156
O        -2.49318742544054      -3.84186908572253       2.19031588554251
O         0.61590847104185      -5.06598601712429       3.63019047439517
O         1.94252460350832      -3.59957490642369       2.13012869176055
F        -3.22522130967881      -3.20788357033330       5.27555252285889
F        -1.09900533735550      -3.21876819118675       5.61131850428997
F        -2.07407108684663      -4.95779294762732       4.78804104332303
F        -0.82716037021219      -5.97179241672171       1.36817885180568
F         1.05646334001723      -5.55389745364024       0.41968115129036
F        -0.57003844525025      -4.16784496432809       0.20766122872210
