35
C9H18F3NO3S optimized with DFTB in AMS.
N        -0.20605034524400      -0.12267953164391       0.33112085889221
C         0.74300654698528      -1.22624961992592      -0.04598299438187
C         0.56002277877760       0.67817756939635       1.34823184453731
C         2.12232440243891      -0.58344988626212      -0.05101543925658
C         2.03853624866638       0.54332694984855       0.98554190088524
C        -1.45106617972248      -0.67242635794572       0.96210803511671
C        -0.48868630450386       0.70779889610971      -0.88535291369995
C        -2.26412470616566      -1.56102335615455       0.03559602395330
C        -1.52954222990271       1.80066296830674      -0.68533293616760
H         0.45523069338155      -1.64497122519751      -1.01037685636453
H         0.67749045360360      -1.99471625837043       0.72588627706812
H         0.36823197849535       0.24105098392134       2.32965372305910
H         0.20581961123649       1.70837220969985       1.34176173437229
H         2.37186358860953      -0.19288773313861      -1.04092985914139
H         2.87070691809076      -1.32383681863951       0.23405321364479
H         2.59992918388580       0.27964167804343       1.88410699157417
H         2.43676761576143       1.47750212391482       0.58470345059044
H        -1.12416489951897      -1.25482089736866       1.82859243558080
H        -2.04351874885252       0.17604199931922       1.31044823022222
H         0.46204063785447       1.15377298585995      -1.18610777039380
H        -0.81617909752571       0.02982029614845      -1.67708639581818
H        -3.11565384015297      -1.93748251034325       0.60179714925319
H        -2.64150805312003      -1.02037525211772      -0.83157733650871
H        -1.67815317718800      -2.41348191045987      -0.30372053052355
H        -1.55273023296787       2.40612380777654      -1.59123432538018
H        -2.52339214240940       1.38540543625654      -0.52885709679685
H        -1.28252717409290       2.45038782356877       0.15227892476794
S         1.40397428148758      -2.14734799714867       3.26429734493688
O         1.35852062823600      -0.82902585149725       3.87623035211766
O         2.49463340190634      -2.33244654585164       2.32181214543108
O         0.11054121750930      -2.60353949992884       2.75800308939770
C         1.77645124910218      -3.30251442907525       4.65666147106457
F         0.83384874180924      -3.22534531849924       5.58849342040478
F         2.94262768759538      -3.00235088373739       5.21378234425583
F         1.83040631823392      -4.55480286246420       4.21894927840687
