48
C12H22F6N2O4S2 optimized with ForceField in AMS.
N        -1.44945127805661       0.42073195025949      -0.08676465905761
C        -1.78254024876242      -0.83870000358050      -0.81606425797956
C        -2.53509439500882       0.60382078529769       0.91913219192793
C        -0.13655092139489       0.31110440797186       0.62119633846951
C        -3.00785764489016      -1.45882574443112      -0.16409654764621
C        -3.68157582996178      -0.31228510675192       0.53924730430054
C        -1.45204531752017       1.57807058389356      -1.01894324993410
C         1.09787271512652       0.28220209459100      -0.31130831451543
C         2.34930710998449      -0.16303191198010       0.45461717586536
C         3.59877277037125      -0.08507038678519      -0.42898552625904
C         4.84991843454645      -0.46727783335741       0.35625900382946
H        -0.95788617445130      -1.58519810373197      -0.80148785405327
H        -2.01804303342760      -0.65177390645150      -1.88970729843252
H        -2.89326151992077       1.65705542435790       0.99197366092112
H        -2.20729285158088       0.31644125880378       1.94586197405307
H        -0.13271243119452      -0.60934162805402       1.25098761350134
H        -0.00969945508330       1.17188248468811       1.31857405597946
H        -2.69067206578482      -2.22023451882549       0.58317352991580
H        -3.68093862409568      -1.93232694281775      -0.91164349668249
H        -4.36877611549598       0.21009818501292      -0.16202989531028
H        -4.24835423391547      -0.65744795404169       1.43176608513360
H        -0.77815921416853       1.40226745293311      -1.88582955948678
H        -2.47070460277956       1.75522647668066      -1.43187912768540
H        -1.12214385683627       2.50642302562497      -0.50072709351549
H         0.93731161455489      -0.40736394309626      -1.16595541835610
H         1.27256985874949       1.30286693237569      -0.71595798415202
H         2.21254129297525      -1.20962627906157       0.80583977902990
H         2.48625258005708       0.48750369052776       1.34357866615294
H         3.72254523508812       0.94954227037411      -0.81723794091692
H         3.48821202759843      -0.77550289266920      -1.29344942016045
H         5.00634772256227       0.24047729459383       1.19838298832817
H         5.73591366295727      -0.42562709587895      -0.31149909783612
H         4.75457003153861      -1.49890570217097       0.75718464569128
N         2.16334986101982       5.01428698067594       3.54676085440147
S         2.77088693383679       4.16494014581850       2.28370018453272
S         1.30518607743929       6.39829204834131       3.36274165694551
C         4.44259380748135       4.69365764546987       1.97176366361167
C        -0.43341562917413       6.01532893953038       3.39361819956537
O         2.78764703869863       2.70630146796552       2.64046792519252
O         1.93724470410105       4.37312501491635       1.04945283305345
O         1.64872520596359       7.07152140530896       2.06280254862284
O         1.61517506221221       7.32325050968959       4.50586039353731
F         4.96039972580815       3.98597284134718       0.90395890200285
F         5.21608148676337       4.46052077635359       3.09284487867138
F         4.45958598265266       6.04360667966711       1.67804807846007
F        -1.16560491116072       7.17858148419197       3.25349456431446
F        -0.75259481637027       5.41621936695427       4.59720583963930
F        -0.74034841925237       5.15319972166863       2.35831244252939
