42
C10H18F6N2O4S2 optimized with ADF in AMS.
N         0.93933824764057       0.22981429102694       0.07431459102404
C         1.97765919992709      -0.32392941335822      -0.89244232221953
C         1.55344254435284       1.56218675263061       0.49506142636675
C         2.41329082562990       0.87929088039712      -1.71048336380975
C         2.36668554300758       2.05809163578166      -0.71101088540774
C         0.75434442166238      -0.66578763884867       1.27911653895875
C        -0.35633157360697       0.46149104351914      -0.67999598631819
C         0.27787642069962      -2.06111181569735       0.93510020425356
C        -1.53568207277129       0.88711774365638       0.17215193996097
H         1.53271783268743      -1.14195386966427      -1.47259803369126
H         2.80504844618994      -0.71453329191694      -0.28279081403279
H         2.20405511342911       1.34519038781966       1.35507937852420
H         0.74482924770987       2.23261901575893       0.81261130949462
H         1.74201748487824       1.04728945253086      -2.56727215237427
H         3.42444881756087       0.70144902703110      -2.09804616181475
H         3.38044628439430       2.30572748822770      -0.36739181721181
H         1.92824922508100       2.95806248534264      -1.16597724645762
H         1.73518177504754      -0.70664706810182       1.77281834115798
H         0.05831223888166      -0.14353710273502       1.95153677470680
H        -0.12786012983750       1.22645869050897      -1.43436386920660
H        -0.58031923948698      -0.47468256628315      -1.21173532611861
H         0.14835525427063      -2.61543165694526       1.87669591670412
H        -0.68631670469880      -2.07521875257948       0.40604384370509
H         1.02828182611097      -2.60344509500145       0.34331298760011
H        -2.36953795220906       1.13188268243036      -0.50382965608488
H        -1.87933671839499       0.08863030050512       0.84373320119625
H        -1.32633958774673       1.78603341737817       0.76937502417777
N         5.20424500321862       0.51201268190412       0.84946142762914
S         6.02847089524847      -0.15442037155434      -0.38372002649772
S         4.56810528384423      -0.37710695241597       2.00839395141581
C         6.69075743921401       1.46642078785840      -1.09145682858619
C         5.94303713125690      -0.82995172006261       3.23584980953360
O         7.20134848419332      -0.92327532288172       0.00904881629453
O         5.15341589197707      -0.66881606273587      -1.44139078985134
O         4.02549118788852      -1.67297526560348       1.57735219986553
O         3.68950767713823       0.50081417901213       2.79103890563164
F         7.45079404335260       1.16410661381500      -2.16862605716844
F         7.44300186685107       2.14032648611522      -0.20089651073723
F         5.67901006824087       2.27820153466692      -1.50453629027735
F         5.37212000407231      -1.09848837052166       4.43697442164271
F         6.80468480883164       0.19790911514902       3.38588123881343
F         6.61748843726293      -1.92039594735891       2.82893092670866
