55
C15H25F6N3O4S2 optimized with ADF in AMS.
N         2.73337106535652       0.90480263229034      -0.52835638618411
N         1.14730189013883       0.78769398849871      -1.99879428613170
C         3.85325138847594       0.50812438943468       0.33635083151803
C         0.25444597151390       0.22311764291312      -3.02869351846959
C         3.35495558511141      -0.05980601088904       1.66415844994902
C        -0.33104321600180      -1.10235729989073      -2.55184917868934
C         2.46151739815752      -1.28359595723031       1.49086892381895
C        -1.06786253947879      -1.01230771719993      -1.21860732583707
C         2.24571212417852       0.17028606977059      -1.53973810157265
C         1.92392321486255       2.00490045980467      -0.33154668712828
C         0.92443957204033       1.92877025410990      -1.25954456621041
C         2.05074480655377      -1.92538271149891       2.81489999378643
C        -1.47934528235527      -2.38610837692300      -0.69138147214028
C         1.21968456479798      -3.18957575204649       2.60345765329047
C        -2.21961820947851      -2.30293282378999       0.63997296243538
H         4.49079667793473       1.39450423817709       0.47628277891682
H         4.42542087663740      -0.24560095599762      -0.22085078019647
H         0.85278690399039       0.08999765503800      -3.94270387887458
H        -0.52463138675397       0.97993176272368      -3.20335023842011
H         2.83082039207020       0.72875187468072       2.23529800157153
H         4.25176849365002      -0.32880882781702       2.25030334813671
H        -1.00566928056817      -1.46695340917355      -3.34574314139148
H         0.48748399961447      -1.83829185544060      -2.48144049843016
H         2.97560016305911      -2.03603645676746       0.87032065146828
H         1.54757569469164      -1.00738450175507       0.93363164145215
H        -1.95962350094489      -0.36252595183276      -1.31676823203155
H        -0.41745069261718      -0.53496965603994      -0.46171032958954
H         2.63272566150711      -0.78737749333781      -1.92212857793564
H         2.13012753094098       2.74072260652249       0.43557265955154
H         0.08915707748368       2.58797084816219      -1.46004358765382
H         1.48443633917996      -1.19463144915062       3.42225249664547
H         2.96002123025777      -2.17356112583914       3.39281919165037
H        -2.11329715046653      -2.89134688799462      -1.44230175691420
H        -0.57165283598765      -3.00673958026498      -0.58228357344969
H         1.77839996843553      -3.92815921828428       2.00796705485036
H         0.29223655003860      -2.96395053972208       2.05555258673755
H         0.94225929523339      -3.65169078398836       3.56305257397708
H        -3.15119146146844      -1.72124577003479       0.54282551115628
H        -1.59853782244067      -1.81052817435493       1.40590341391532
H        -2.48233906862729      -3.30359968609698       1.01533385977495
N         2.90297371978463      -2.49953253305120      -2.81442153047535
S         3.26816081492904      -2.29149692578218      -4.38306330893012
S         3.25001029376670      -3.82388573535532      -1.94999608250779
C         1.99640966215773      -3.31423735631329      -5.35554810497906
C         5.03603040693234      -3.59471537622126      -1.35739388372902
O         2.87307044729917      -0.91046500674295      -4.67224762591195
O         4.55921662845002      -2.80371110123673      -4.81082861822682
O         3.27499349799541      -5.07739218424653      -2.68411858185097
O         2.48114182100716      -3.69005326465977      -0.71404125426263
F         1.99837814660450      -2.87502509437738      -6.63801016222162
F         0.74607617280508      -3.13978129080693      -4.84891102730417
F         2.28627904541042      -4.62495036773342      -5.34641762334350
F         5.24158584122230      -4.38512615204647      -0.27701104440391
F         5.26431857390617      -2.29984848667444      -0.97216336053902
F         5.92712256480629      -3.91468219801730      -2.30834431296606
