46
C14H12F18NP optimized with ForceField in AMS.
N        -0.48045120610879      -0.01227619077077      -0.42233219174994
C         0.94695162305225      -0.01433579406961      -0.76443856680693
C         1.79421535104991      -0.00855810544257       0.51191208399039
C         3.28491921953694      -0.00947342486315       0.18850074371733
C        -1.13481809021055       1.17634516450989      -0.24403466882838
C        -1.14098032617287      -1.19903218808157      -0.25579499713446
C        -2.48748588932291       1.19604923829934       0.10516666227338
C        -2.49349000665307      -1.21482479703595       0.09430751591501
C        -3.16799064223107      -0.00843589614722       0.27473114984981
H         1.19440633849686      -0.91055296690849      -1.37703424613736
H         1.19382189631716       0.87640403691857      -1.38482358601460
H         1.55466825261039      -0.90750873218081       1.12047729435234
H         1.55440778120778       0.89530946926008       1.11322027116258
H         3.55254876562600      -0.91634687904625      -0.39439292123634
H         3.86940900434889      -0.00842415934973       1.13260285929801
H         3.55303005898949       0.89618623785619      -0.39598819854743
H        -0.61036682017419       2.11698821609109      -0.36421671954332
H        -0.62128730592325      -2.14114226266069      -0.38497297272053
H        -3.00103940540767       2.13809158754310       0.24751136793986
H        -3.01156371462539      -2.15540032726399       0.22909617795036
H        -4.21504914507225      -0.00693156431716       0.54952415514036
P         1.36215302308003      -2.43909767955536      -5.51971368922789
F         0.46086361947951      -2.32463612360933      -4.05675821712796
F         2.88721506083495      -1.64543817945541      -5.39710991006358
F         0.05680124517918      -3.52704916098275      -5.78894025991171
C         2.36812723072983      -3.63810987088435      -4.37506056314631
C         0.56072478739794      -0.67798244662853      -5.51484031537069
C         1.55071813835804      -2.82525196493659      -7.40483843130293
C         1.60969617243734      -4.84010341120241      -3.74984589231962
C         0.96112232434477       0.27970769485993      -6.65674393927744
C         2.10409022537520      -4.21294213285837      -7.78481239552848
F         2.88842012537947      -2.91340250382519      -3.30899902245754
F         3.44502860833679      -4.14717615250298      -5.07307442023644
F         0.89444759106906      -0.01786434686679      -4.33553603381961
F        -0.81978284419626      -0.81279073315973      -5.56140578066636
F         2.42342316915870      -1.90653180787004      -7.96036921298725
F         0.32724744095608      -2.66814257212898      -8.04197244978369
F         2.52652251637826      -5.66095742448377      -3.11712290378143
F         0.95173308677784      -5.59844214776998      -4.69408143479101
F         0.69849009092042      -4.42214731437366      -2.79617420633498
F         0.41669743154243       1.52600992050223      -6.40020894355997
F         2.33307789655962       0.42832050092111      -6.73632861234206
F         0.46403027905341      -0.14231407303283      -7.87329294677542
F         3.46315202805058      -4.28082604614479      -7.54292850705286
F         1.91440730164889      -4.41569011697608      -9.14075280416366
F         1.46102294321426      -5.22968714397564      -7.11503449964126
