24
C4H12F6NP optimized with ADF in AMS.
N        -0.25080098586365       0.31646923185583       0.08855254143047
C        -0.65571680262595      -1.10169344337498       0.32518680223597
C         0.13915745143903       0.94062070317603       1.40297801288393
C        -1.40003053775829       1.05487144362463      -0.54587152403729
C         0.92628773316786       0.36873984640648      -0.84062395763600
H         0.18497582536569      -1.64329785519272       0.77639193504105
H        -1.51580490039466      -1.10783328674545       1.00616800845806
H        -0.93205525865951      -1.55891615744289      -0.63289085411251
H         0.51055081167574       1.95265767688922       1.20815476858086
H        -0.75011109617109       0.99316568015364       2.04118742692017
H         0.90855972361393       0.30183838384636       1.85624634592911
H        -1.08166804816669       2.07202991137472      -0.80040212827636
H        -1.69661868663686       0.49380392366042      -1.44167234530350
H        -2.22512297659091       1.10171736684170       0.17406527375287
H         1.18208290880050       1.42522209990179      -0.99103844693143
H         1.76067929676913      -0.17361916630877      -0.37830835403081
H         0.64211413567991      -0.10212503443167      -1.78988136477563
P        -0.36107026833372       4.68423935360029       0.19847020396873
F         0.62769907189026       4.96792875474282       1.47847940262412
F        -1.40228248656157       5.85020430626044       0.66097817471266
F         0.48483859063434       5.71697576407835      -0.74146448964307
F        -1.32875961466381       4.27174733031521      -1.09124815882904
F         0.69600474645516       3.42234948767797      -0.28192532174611
F        -1.19424909276483       3.55599627489057       1.12297260918375
