49
C15H14F18NP optimized with ForceField in AMS.
N         1.09966822658725       0.00346232800046       0.53276787572510
C        -1.26535093875957      -0.00065995117407      -0.13866177909330
C        -0.28010076730485      -0.02911054360151       1.03376824962374
C        -2.71612526529413      -0.00792094503049       0.35488390141536
C        -3.69402875784618       0.01626560149477      -0.81630543211133
C         1.71240391124065       1.20680767784731       0.31298730810942
C         1.75182711744330      -1.16760386041404       0.25791268754271
C         3.01355037761375       1.25816351125232      -0.19171999075262
C         3.05369242299638      -1.15189211418355      -0.24913077359588
C         3.68556113965365       0.07050351312222      -0.47405220744372
H        -1.08863715831376      -0.88949039193321      -0.78352775875281
H        -1.08574445260167       0.91503445686477      -0.74393218105786
H        -0.44653171385972      -0.94528111135366       1.64354804338926
H        -0.46457320991163       0.84057980256045       1.70362408537376
H        -2.90203119553345      -0.92148088160341       0.96071417906962
H        -2.89888661376782       0.88294187060178       0.99462279085328
H        -4.73573103094101       0.01237210719433      -0.43197009720818
H        -3.54372554615719       0.93303897493323      -1.42565519997693
H        -3.54892125919625      -0.87860305968101      -1.45853409812001
H         1.19255851033639       2.13486950352188       0.51951218609405
H         1.26293637688559      -2.12095658600957       0.42070105252318
H         3.49427319295757       2.21179399198481      -0.36821657263129
H         3.56418923865061      -2.07984374532623      -0.47219946223118
H         4.69076541386863       0.10043104989071      -0.87117847926669
P         8.05669993007298      -2.06187075063318       1.14498519522144
F         7.44186228933239      -3.20729744717282       2.27367339459357
F         6.86790175985346      -0.88677155568964       0.72689324410258
F         9.47327555920107      -2.91886809182277       1.61160057643416
C         7.96160133380960      -0.98942239501792       2.75835316244909
C         7.01889774472786      -3.33539200929400       0.12105013008716
C         9.35159745629316      -1.41424083837510      -0.13768384371316
C         8.76775507921248      -1.47383333075857       3.99456566387891
C         6.83710744277145      -3.04760181122209      -1.38374694066201
C        10.39955874000270      -0.40410135859271       0.37057670281329
F         6.63651072837877      -0.90698459744467       3.16827623512288
F         8.37078324304334       0.29875203636322       2.47931249234562
F         5.73342947163343      -3.41599764750927       0.64801921887403
F         7.60923776300903      -4.58744027484020       0.22483479206437
F         8.67880009724610      -0.77371848545150      -1.16257845658185
F        10.03340330739702      -2.48403572825628      -0.70166766107921
F         8.70461842855111      -0.49889065695423       4.97468919321760
F        10.09812496954090      -1.68945188767861       3.70530677666338
F         8.23188899385186      -2.63259837419087       4.52750297641534
F         5.93929545553210      -3.96283504760319      -1.90529883413554
F         6.32231848471233      -1.78508820357129      -1.60107963108508
F         8.02279653361814      -3.19433069713229      -2.07473911108852
F         9.82944602675836       0.84104249481069       0.55883326987621
F        11.38858990250134      -0.26486638093805      -0.58709495553775
F        11.00088807600247      -0.82120733758294       1.53709477544584
