31
C7H16F6NP optimized with ForceField in AMS.
N         0.14918617303992       0.27376335842148      -0.08743103021714
C        -0.46708526801311      -1.03225633043328      -0.44404474049441
C        -0.93301957244238       1.06079903238886       0.57797526028499
C        -1.97097627881337      -0.84301100610060      -0.44243935658346
C        -2.19415189542595       0.20848068758470       0.61275883271011
C         1.29306197524652       0.10095686284189       0.85847876195582
C         0.59032310491533       0.98295701493804      -1.31690529893620
C         2.47596408759731      -0.70373086958585       0.29359516652766
H        -0.23016254825077      -1.81658269049606       0.31156990958064
H        -0.12564512329218      -1.42023180400739      -1.43074968270313
H        -1.16439669468629       2.00886701679371       0.03812698116013
H        -0.67484243188915       1.36843736646193       1.61750811761369
H        -2.50803465356204      -1.78686787539286      -0.20379178736457
H        -2.30651772528396      -0.46220075303314      -1.43208706220989
H        -3.10748360848758       0.80764042289924       0.40645141312821
H        -2.29055310089632      -0.27849385326042       1.60893320285543
H         1.67830735255250       1.09618035522627       1.17582194386856
H         0.94447769048179      -0.41220013492900       1.78460329129548
H         1.31728747607415       0.37850034840943      -1.90019586372886
H        -0.27296526327111       1.18527639643012      -1.99035075955358
H         1.06741895395511       1.95565124214583      -1.06319600950379
H         3.17617910853950      -0.94441206334703       1.12079565290226
H         2.14426144573657      -1.65781963388257      -0.16302204082460
H         3.03756448558880      -0.10786468235652      -0.45540036891129
P         4.96111267872640       1.67916549607493       2.88006730231492
F         5.31160617994998       0.02113511231461       2.59707753176786
F         6.61776614524514       2.05206708934024       2.61777874892482
F         4.52482792470824       1.76695136407547       1.22047056009742
F         4.64887372092051       3.36650687027014       2.96732557219720
F         3.34919241577017       1.32392374374462       3.35668475793847
F         5.32848670066628       1.55339897256317       4.55370580300727
