29
C9H17ClN2 optimized with ForceField in AMS.
N         0.00350981643097      -1.34434492882392       0.34783510515500
N        -2.03276772536988      -0.45900721239624       0.23921399755209
C         1.36899319275981      -1.61371976131988       0.79469153625293
C         2.38333151987621      -0.79892417443045      -0.01932812783338
C         2.14412631848469       0.71194842854277       0.12283721665216
C        -0.91763272091240      -0.59335097540714       0.98270317530595
C        -0.54834141910243      -1.69984760981033      -0.83034555187231
C        -1.81251522835580      -1.15054839417675      -0.89750527284756
C        -3.20783913211447       0.34605342827889       0.56111621372624
C         3.19347149916044       1.51749632207959      -0.63533346300838
C        -3.19330048024533       1.64511051191090      -0.23630779843770
H         1.47356751054232      -1.36249081468155       1.87316162006668
H         1.58478518453232      -2.69798301901723       0.67995272120714
H         2.31706783510583      -1.09166066328688      -1.09000298181136
H         3.40557750871660      -1.04682781584508       0.34123025187875
H         1.14381531515195       0.97538223981416      -0.28283164950106
H         2.17420047414435       0.99899306979038       1.19648072563985
H        -0.75940249714230      -0.11239371920876       1.93995439240468
H        -0.05766691056758      -2.29070147559519      -1.59283786378339
H        -4.12903803627069      -0.22983395616665       0.32797044095606
H        -3.21602004342440       0.58827721135390       1.64627815196557
H        -2.51066887429332      -1.23045813347229      -1.72050497316284
H         3.20779307776355       1.22469705091293      -1.70670405299374
H         4.19815742234279       1.35257829351408      -0.19339218599453
H         2.94843015663339       2.59855531323876      -0.56704239088442
H        -2.27881813275869       2.22818159011915       0.00472741724865
H        -4.08476237676321       2.25372809823276       0.02328926939366
H        -3.21185314778696       1.42913498608395      -1.32545149644301
Cl        6.81116516276222      -0.30937057903387      -0.07155453693176
