45
C11H20F6N2O4S2 optimized with DFTB in AMS.
N        -1.02146449468002       0.00113904690780       0.48226467574449
C        -0.92858978128568      -0.23272134908302      -0.99306321283941
C        -2.48032832827284       0.29177747032608       0.70992955891152
C        -2.19755410051227      -0.99370578603033      -1.35487371427139
C        -3.24387433812716      -0.51924984466919      -0.33725681054489
C        -0.65792491890939      -1.24268023862072       1.24735287906908
C        -0.16941112397588       1.17873023635846       0.85830338688439
C         0.80269491135462      -1.67534006650677       1.16408958395559
C        -0.20988052018780       1.52499359065163       2.33783792033280
C         0.98050643576469      -2.92598981723633       2.02790127726939
H        -0.01088110151022      -0.77122403873935      -1.22593331159248
H        -0.90810527769027       0.74340293486368      -1.48371517528874
H        -2.63227589734068       1.36326900318090       0.56561693569585
H        -2.74492031818763       0.02179648712393       1.73257064733254
H        -2.03867197395244      -2.07103109183935      -1.27559987367225
H        -2.49489439433419      -0.76836010891284      -2.38002173132264
H        -3.99864371920158       0.10959915566763      -0.81336134974719
H        -3.75214807876860      -1.36701058378159       0.12224781331551
H        -1.30625436317694      -2.03693392139472       0.87506611532176
H        -0.91354549129271      -1.05238844879910       2.28707049586369
H         0.85107853702807       0.95204872658915       0.54073398941432
H        -0.53309940977358       2.02271645394981       0.26513902728068
H         1.09060891071028      -1.89608842759895       0.13165689506189
H         1.45891733508865      -0.88709119511805       1.54112238617258
H        -1.23199269303949       1.62467278633180       2.69651620135713
H         0.29769366717593       0.77524854652173       2.93998831636259
H         0.30165730361204       2.47788048195209       2.47114947379887
H         0.70151988560222      -2.71299710053950       3.05995977470559
H         0.35387885980575      -3.73777001853765       1.65882038238075
H         2.02172762534059      -3.24446605360115       2.00196171628732
N        -1.48824320752012      -2.65795559030874       4.51957590836140
S        -2.93694749699637      -3.35626795335713       4.48803600348483
S        -1.44456924064675      -1.07179578736791       4.68837107385412
C        -3.37599890737253      -3.39912941007949       2.66580098099379
C        -1.93880451037995      -0.60143631219539       6.44206635401371
O        -2.75838489371757      -4.74341393302429       4.80451804326121
O        -3.99995141858197      -2.61768927251326       5.11402528388148
O        -2.35651890636882      -0.31192270359302       3.83700095222749
O        -0.04546544833077      -0.70571766949425       4.59094958464200
F        -4.37487598103543      -4.22807070797719       2.43002924858232
F        -2.31704679946854      -3.80169266157136       1.95328859569647
F        -3.71599771349534      -2.19254177855648       2.20335034154855
F        -1.15938946426393       0.39433083526997       6.83713185471495
F        -1.76967152989188      -1.62762258064065       7.25363713418145
F        -3.19216157829352      -0.20292770700689       6.48321458981694
