37
C11H23NO2 optimized with DFTB in AMS.
N        -0.41218980758722      -0.03799202482030       0.44282838230339
C        -1.70075628580481       0.11772428797654      -0.31892512867444
C        -0.60140853323520      -1.02260688996209       1.55758434736608
C         0.58828390360736      -0.57253796696528      -0.54956934082221
C        -2.88299902513128       0.48198760146527       0.56675070323643
C        -1.76191603350687      -0.65863275225763       2.47526438543467
C        -3.05669337042580      -0.55409530152136       1.67403818233639
C         0.04794727219339       1.27558924285605       0.96156460992711
C         1.95597642534261      -0.92787075714175       0.02448604406092
C         2.85430929005615      -1.41531742850759      -1.11322704405357
H        -1.87941024002110      -0.84678280970322      -0.80926423452203
H        -1.53226330579828       0.88131562924413      -1.08227439364144
H         0.33077179116094      -1.07028216897141       2.12351439808663
H        -0.81246806450897      -1.98941009796087       1.08095342462605
H         0.69434074212233       0.19163667887855      -1.32458075718938
H         0.12399675594899      -1.46190393373446      -1.00110343264856
H        -3.76975223162608       0.49493961538682      -0.07246046199034
H        -2.76588704483241       1.48454298531607       0.99299417133691
H        -1.56023318287911       0.27489981261750       3.01187625457627
H        -1.84924047700792      -1.45954065168613       3.21385588025509
H        -3.88324573042879      -0.27018037170699       2.32975182390042
H        -3.27570039068972      -1.52774752662914       1.22468593110764
H         0.95414792507014       1.13454429042645       1.54682750394786
H         0.24885712742032       1.93577040949619       0.11938704040370
H        -0.72233004809645       1.71307711649949       1.59130903856594
H         2.42140298668530      -0.06267445361451       0.50720369711709
H         1.86438657658354      -1.72507292839315       0.76622536237012
H         2.41018547137713      -2.28356565461011      -1.59990073900189
H         2.99122010267448      -0.63007496027475      -1.85755866686741
H         3.83019936068723      -1.69622339357920      -0.71828473633008
C        -2.32289474731298      -4.63500439360065      -1.71461720067690
C        -1.87480932952091      -3.29056701005154      -1.09968245811434
O        -2.12752237216289      -3.10903799289355       0.11040194268505
O        -1.28092652622204      -2.49328618693372      -1.86040844435827
H        -1.49875914902553      -5.34248597107538      -1.62219668848470
H        -3.18585095163487      -5.02445673183396      -1.17805067388109
H        -2.55829347447071      -4.50424896103440      -2.76912911838712
