44
C12H24F3NO3S optimized with DFTB in AMS.
N        -0.31357105838705      -0.33570607122485       0.52748502936689
C        -0.52875136409611      -1.65462176048347      -0.16533446939700
C        -1.24720384031999      -0.40065850280284       1.70061915940476
C         1.09481747897293      -0.20707164927318       1.02572629428550
C        -1.99496681485809      -2.02006944582049       0.05394025939811
C        -2.48887004492846      -1.12323837150062       1.19659918542406
C        -0.69041282166863       0.76788259538131      -0.41333652182247
C         2.15025450199981      -0.25516992109497      -0.07508327607307
C        -0.47695358189201       2.18233956923758       0.12519153394625
C         3.51941715902366      -0.52401935829322       0.56312439118346
C        -1.03718298295372       3.19520437645567      -0.87330891253334
C         4.61965122425256      -0.57705722830371      -0.49337893723400
H        -0.26671376356384      -1.55880631169517      -1.21911087972040
H         0.12988489182581      -2.38335125548633       0.30873973365938
H        -0.75431594773530      -0.99449986156721       2.47220133587699
H        -1.44390309613669       0.60134740011150       2.07938138625022
H         1.25280689358394      -1.04297864592628       1.70863888005664
H         1.16120777039078       0.72172270343853       1.59602699381620
H        -2.58360749778410      -1.86087102029804      -0.85223513923011
H        -2.06218981777084      -3.07212327151421       0.33517567458380
H        -2.91876032340114      -1.71608631261932       2.00463319445934
H        -3.24374246145810      -0.41611600535030       0.84359436037732
H        -0.09833887098678       0.63197576784203      -1.32185728431828
H        -1.74346970401974       0.62129621390949      -0.66645198730644
H         1.92528508287860      -1.06253366126954      -0.77624267802181
H         2.17358686143852       0.68583613645064      -0.63399325210932
H        -0.97938653097479       2.31143484176298       1.08695019120255
H         0.58860428108463       2.37629111265403       0.26964855780413
H         3.74390631298809       0.26329016141950       1.29019985132890
H         3.47676633078741      -1.47840597876572       1.09722342601682
H        -0.54567730496942       3.09102358223330      -1.84104410066965
H        -2.10923457506778       3.04870464874827      -1.00825658317926
H        -0.86751065598361       4.20573962306323      -0.50378447759585
H         5.57885697564509      -0.77808782871421      -0.01699653403078
H         4.41760330572427      -1.36932921424564      -1.21511899115161
H         4.68801528778331       0.37200506255263      -1.02771066560339
S         0.70930163111897      -3.71215136547701       2.58048058186217
O        -0.66246715825744      -3.23998305501754       2.41858349314326
O         1.62431410980998      -3.14688202150890       1.59074822521557
O         0.86176411462782      -5.11605710083373       2.83605748520603
C         1.23234873792045      -2.84294135050815       4.13399659969887
F         0.51856669749186      -3.20877415046722       5.18805745333104
F         1.03804150516292      -1.51903079705611       3.95347517165621
F         2.51688511280214      -3.02123733114275       4.40739622294233
