30
C8H20ClN optimized with ADF in AMS.
N         0.08219896769951       0.03823941216157      -0.14314240495864
C        -0.54747592786310      -0.38456533104065       1.18269261985218
C        -0.96982181568516       0.33383548781216      -1.19287962761407
C         0.97004425308854      -1.09810142100861      -0.64004424615605
C         0.89572671181128       1.30364518096164       0.09905575597180
C        -1.45937033938549      -1.58932298644483       1.09372515178997
C        -2.03593646559998       1.33264117474450      -0.78674886086768
C         1.79118725813453      -0.77408078341582      -1.87031095170096
C         2.13355259235996       1.13579928000839       0.95389059170821
H         0.30914746858883      -0.66063432213230       1.84270605092995
H        -1.07277017955515       0.50329558840610       1.56211575641712
H        -0.42553128294116       0.69256960797813      -2.07707325410959
H        -1.42338558552617      -0.63355866782356      -1.45028870249307
H         1.58688487068415      -1.40516258967927       0.23984659930486
H         0.28216566617301      -1.92765161728243      -0.85429654037774
H         1.14772627329421       1.69576580207531      -0.89820946868053
H         0.19954963893694       2.01009280364162       0.57233820831461
H        -1.89120267504323      -1.73755427948623       2.09517977780410
H        -2.29336752715361      -1.48266915724124       0.38329592401897
H        -0.88469680856037      -2.50003090273852       0.87436156283765
H        -2.70914867655485       1.47857822240975      -1.64518725437454
H        -2.64312053933481       0.97326348008213       0.05448128314545
H        -1.61742792117475       2.31510296931569      -0.52980675486846
H         2.39584188812325      -1.66613622267989      -2.09537709057047
H         1.18655872143725      -0.55870137218549      -2.76463699633712
H         2.49543464447911       0.05330122314684      -1.70798022975274
H         2.89478996761732       0.50539168667605       0.47698449442270
H         2.56120066590781       2.13835238442658       1.11240191771574
H         1.92805235251913       0.66618267491895       1.92724467859164
Cl        2.05759299122299      -1.93920780990655       2.36428928973670
