39
C9H16F6N2O4S2 optimized with ADF in AMS.
N         1.66413804093293       0.21959994391813      -0.43933670493538
C         1.13104771071783       1.18098337142753      -1.49785309287148
C         0.54917025934189      -0.72365713598548      -0.03827674825624
C        -0.08232326471240       1.95124321514352      -1.01870452883797
C        -0.67841651899242       0.01376939125063       0.47394265535882
C        -1.19845657942507       1.01195764316320      -0.56208856801365
C         2.20105293959006       0.94300591598962       0.76317827155953
C         2.79257194403751      -0.56419476507927      -1.03620052228395
H         0.87505692734287       0.54159146855847      -2.35771874723313
H         1.95039674478289       1.84880513719416      -1.79653889461621
H         0.96836056443598      -1.41056035294647       0.71282474473604
H         0.30370866181713      -1.30181361683891      -0.94398923446620
H        -0.41130477025300       2.57598191072974      -1.86506794807915
H         0.20744576511975       2.65820991316035      -0.22386620622637
H        -0.44734187802948       0.52394935779939       1.42411661883063
H        -1.44338428322668      -0.74505374934870       0.70949954363633
H        -2.04345245626208       1.58395619884499      -0.14773958553949
H        -1.58572876082233       0.45458463170522      -1.43518615242790
H         1.44189165318960       1.61724182213179       1.16567166291631
H         2.47741571569128       0.18711780110551       1.51024432871210
H         3.07656857418268       1.52589991016051       0.45759973093837
H         2.43780495817185      -1.06506980485801      -1.94491759068578
H         3.60419573203963       0.13232530212606      -1.27961513469315
H         3.13466641240732      -1.30139493971858      -0.29746143192113
N         3.47086946805464       3.25040193658583      -2.75173459187818
S         4.12344627253815       3.38708717877253      -1.28795258731831
S         4.31192586319230       2.89844985075457      -4.09227364148850
C         5.27264041781458       4.90555295548105      -1.26532656324462
C         4.20968661664702       1.01610846170205      -4.24092389907053
O         3.02078972548834       3.77644023564878      -0.40220356529579
O         4.96610525878505       2.26193050267879      -0.86018978656360
O         5.73957983822427       3.16930365452664      -4.01131765085425
O         3.51591030490857       3.33021761316600      -5.22888134085993
F         5.29465911178344       5.38443437258763       0.00494279096346
F         4.79910089568340       5.86789635321831      -2.08411657550410
F         6.52663645364605       4.58703696455736      -1.62340939177553
F         4.73385410137102       0.63149535165899      -5.42387375789404
F         2.91116480730431       0.58150399932151      -4.19404586699865
F         4.88798875968110       0.37950476660654      -3.24945058661836
