24
C6H11BF4N2 optimized with ForceField in AMS.
N        -0.52629506846069       0.19334241793887      -0.36070969125221
N         1.65771579140811      -0.06941507655370      -0.04439542244343
C        -1.92521933920840      -0.10150459930247      -0.65809722344763
C         0.50401942848925      -0.67344860085753      -0.38527907476156
C        -0.00769435282743       1.38174744555107       0.00929287201265
C         1.34959390146372       1.21833616525386       0.20409183051156
C        -2.72832203928553      -0.20506504282918       0.63271822429862
C         2.97577832830392      -0.68358866736753       0.04681610303391
H        -2.34774340479987       0.69821775391212      -1.30432858942671
H        -2.00150793775081      -1.06471987500993      -1.20812150212342
H         0.41406364763313      -1.72304108893916      -0.63248960908245
H        -0.57361546936859       2.29687475063550       0.12867510628672
H         2.05662566464685       1.97893610782920       0.50988166739148
H        -2.31661300898804      -1.01705397222668       1.26961385567868
H        -3.78778409087176      -0.43776561424686       0.39668444443953
H        -2.68642125483527       0.75420331756301       1.19068645320711
H         2.91397120953374      -1.77044722959270      -0.17598372754960
H         3.66077470685116      -0.20577720537183      -0.68440698221287
H         3.38060174758806      -0.55060387139023       1.07218530032660
B         0.50740745317406      -2.11649288325603      -3.94136002906457
F        -0.39250613166985      -2.63983590833452      -2.97587320815405
F        -0.03030614205851      -0.92228945896131      -4.49071202550801
F         0.69550062606481      -3.07156041243551      -4.97547070537793
F         1.75562172306794      -1.83388104520845      -3.32478381108243
