32
C10H15F3N2O2 optimized with DFTB in AMS.
N         0.11009230841952      -1.21548124526563       0.14058527381357
N         2.03567719394889      -0.45094434268236      -0.43598352642708
C        -1.10107310479206      -1.45606912208496       0.91615917262192
C        -2.23355115564447      -0.53368036084579       0.46173476937177
C         1.07027181597570      -0.35696874187383       0.47671281558882
C         0.46580574210805      -1.86524050857770      -1.00974899139104
C         3.29034727835258       0.29357784912205      -0.38827146733274
C         1.68303938989850      -1.38179937769267      -1.37381058222352
C        -1.92608126669028       0.93931632883477       0.72180588804071
C         3.04673662276517       1.75523596458438      -0.74098147442127
H        -0.84480834188333      -1.28919906097894       1.96655189312821
H        -1.38313403950240      -2.50206266476196       0.77495161670959
H        -2.42567365708749      -0.69020816717452      -0.60469847108767
H        -3.13273491463098      -0.82155785543917       1.01344000231455
H         1.09098011848868       0.26444304895422       1.35525700246949
H        -0.15931297505172      -2.61467711633729      -1.46264082845653
H         3.67804867922773       0.19822943937878       0.63168868035139
H         3.98334096563033      -0.17194418816536      -1.09276775967209
H         2.31944040800005      -1.62957844948086      -2.20524070367882
H        -1.05843169259130       1.25969334355067       0.14331009235815
H        -1.72122042171638       1.10538770568352       1.77962790662668
H        -2.77933280764027       1.55137723326824       0.43089423748263
H         2.62256777518272       1.84508591582423      -1.74132329719561
H         3.99354841936734       2.29220732397957      -0.70797545303048
H         2.36154580225587       2.20798579896929      -0.02518043328750
C         2.22266580775769      -1.12836613103776       3.11718308356986
O         2.95298483317581      -0.33882083894890       2.51372401801510
O         1.00935692773001      -1.32484313731300       3.02014899492475
C         2.98218976786429      -2.09239956595521       4.14753755745077
F         2.16807403567521      -2.61157466455464       5.07702896464737
F         3.98415251975917      -1.47983459418583       4.79549735740231
F         3.52766337234735      -3.13374634419335       3.47964271211672
