37
C9H20F6NP optimized with DFTB in AMS.
N        -0.15841784254925      -0.26245248050406       0.13025463938760
C        -0.56409610157872      -1.42635716171052      -0.73819938282665
C        -1.12690459935538      -0.27135485924254       1.29389377675210
C        -2.06003388691592      -1.57764545196558      -0.53185205836521
C        -2.24204217339762      -1.25843015258918       0.94931218566681
C         1.24158330834695      -0.45029454890304       0.64105618160087
C        -0.30419941779461       0.99946685520465      -0.66676208667166
C         2.29789080334653      -0.53272172563949      -0.45807635679325
C         0.16124371058418       2.26049480971976       0.04805293511219
C         3.60392302571329      -1.05174918483786       0.14389621456320
H        -0.03917581550995      -2.30962059468077      -0.37500512420500
H        -0.28403568947585      -1.22869305730935      -1.77257856377183
H        -1.50502936976329       0.73998345950266       1.44404732727683
H        -0.58673955811998      -0.58430466946126       2.18687700985985
H        -2.37115566121066      -2.59692037988465      -0.76179626353532
H        -2.62072691442641      -0.88153021027729      -1.16224540978212
H        -3.22334568032066      -0.83006752831743       1.15783499033794
H        -2.11906459779979      -2.16772022421494       1.54011401903660
H         1.23488403803862      -1.38078408718510       1.20919991920543
H         1.45643095756289       0.37283317486534       1.32581442222196
H         0.26853156009302       0.87122442017534      -1.58821779137381
H        -1.36232074599653       1.08507866345735      -0.92667490517396
H         1.97387924698232      -1.22189910920159      -1.24123988197403
H         2.46174234814178       0.44946314343750      -0.91265671683998
H        -0.31240495260988       2.37718176638232       1.02114056051548
H         1.24172064448395       2.27044598478949       0.17832142740398
H        -0.11424938857591       3.11417414250916      -0.57084274410914
H         3.94508607604375      -0.39712831291428       0.94639639673610
H         3.45457209341389      -2.05409666372556       0.54448827260622
H         4.37310265419075      -1.09251736053763      -0.62649763517626
P         0.41777498331122      -4.20445743637916       1.76532401196374
F        -0.58748359309365      -4.86372595284394       2.85886965104479
F         0.05755894019075      -2.66645697724167       2.37506542541496
F         1.68241130785626      -4.29522759331554       2.78759151615907
F         1.40702356999382      -3.44677226583099       0.63064404121693
F         0.76347586224928      -5.64754502165139       1.10968082989765
F        -0.85680345814921      -4.00970582357875       0.70135277791797
