43
C13H28ClN optimized with DFTB in AMS.
N        -0.66670317786976       0.51982106017091      -0.18447884938802
C        -1.69394106707601       0.27012806170673      -1.24925630997297
C        -1.16764033614084       1.60412794927889       0.73219501756848
C         0.56815944161632       1.02022488365257      -0.89001354473820
C        -0.38097641472446      -0.72110729914277       0.61847336590315
C        -3.06924909028414      -0.07816706415663      -0.69021775201777
C        -2.53026929342812       1.28905582665480       1.33014016739535
C        -3.56904674378392       1.02361207333449       0.24317555561275
C         1.76734788020975       1.30940116219997       0.00977265240973
C         0.30861473653848      -1.84593771262778      -0.14572298984651
C         2.95016589375873       1.76181159056933      -0.85295936133429
C         0.47144274726521      -3.04712067807143       0.79551964695175
C         4.16793430683732       2.05852585955139       0.01990164110505
C         1.19346031718266      -4.19840732050493       0.09992176862321
H        -1.32474106175882      -0.53303983570344      -1.89010014370620
H        -1.76234842238545       1.18582819935932      -1.84373604900372
H        -1.21532407303800       2.52322134080602       0.14151228541805
H        -0.43347512338053       1.71070234438844       1.53956446458876
H         0.27388060634050       1.93394706239736      -1.41500862181474
H         0.83124330821491       0.27099552136556      -1.64163879931151
H        -1.33467855577539      -1.08024098074084       1.00675175967651
H         0.23129537855071      -0.40474395360283       1.47268773124935
H        -3.04094703107821      -1.03596095232524      -0.16464842125137
H        -3.74889602902287      -0.18711493537441      -1.53988121959759
H        -2.82900260890148       2.15536769996503       1.92568903755004
H        -2.46091608020581       0.43407518774578       2.00669223614437
H        -3.74383053831289       1.93840199455171      -0.33309773885374
H        -4.51600799942519       0.72040875467623       0.69574813472057
H         2.05178390499243       0.42071396295295       0.57453328586366
H         1.52417031709185       2.09162796737375       0.73029108490288
H         1.29771775992391      -1.53319766395740      -0.48932041192468
H        -0.27576678444764      -2.14765803169602      -1.02114943980214
H         2.67291601520944       2.66057328577864      -1.41521506898430
H         3.19904603393168       0.97746624981765      -1.57683735765817
H        -0.51517427089244      -3.38259039931662       1.13151106637479
H         1.03989292841240      -2.73761165395593       1.67742513862452
H         4.46648546551601       1.16664422635284       0.57115318235840
H         3.93872509727837       2.84770570845954       0.73607663819612
H         5.00277765276055       2.38156687124293      -0.60212696873517
H         2.18847713928509      -3.88755131752316      -0.22092106806883
H         0.63359889351634      -4.53062455697747      -0.77572714999333
H         1.29675672222591      -5.03879675286947       0.78598659868776
Cl        0.88744446197344       0.89211231659356       3.09706732127796
