47
C15H28N2O2 optimized with ForceField in AMS.
N         1.35836660800258       2.27542938972572       0.03978468232156
N        -0.84603326695695       2.42595325682463      -0.22276745204545
C         2.73955222185590       1.86186821801226      -0.20171198667039
C        -2.17914229619172       2.22901149389366      -0.79172463563962
C         3.00840703718341       0.46692939539086       0.38443568058327
C        -2.42201658377711       0.74942353122606      -1.13001308173498
C         2.09045010374364      -0.60217670396110      -0.22967296816197
C        -2.36654755956509      -0.14223552402233       0.11945112694983
C         0.33089234204394       2.16488924917586      -0.82442139848619
C         0.81529266252514       2.62812283041004       1.22252917280603
C        -0.55138923288371       2.72924590665180       1.05784557482037
C         2.44795714735466      -2.00582974678449       0.26896524178709
C        -2.56095924617066      -1.61866523194253      -0.24141348673823
C         1.48130527337105      -3.04699672618930      -0.28986494585965
C        -2.49053021655922      -2.50123050865499       1.00216382336641
H         3.43064039926191       2.59976378620651       0.25999076665372
H         2.94713972021279       1.84936524105749      -1.29451370259040
H        -2.27382650980360       2.83806823955438      -1.71638533196856
H        -2.95699942895617       2.57736818919611      -0.07686715709031
H         2.86390934380331       0.49506285587365       1.48671317259420
H         4.06926986602243       0.20156671587608       0.18396183726993
H        -3.42358462105921       0.65372576332143      -1.60300677138453
H        -1.66382795456660       0.40992106174267      -1.86925433172229
H         2.17679757014227      -0.57352785182635      -1.33827176312216
H         1.03712211529575      -0.38544501931937       0.04876470660066
H        -3.16051693439097       0.17348237940133       0.83113801522893
H        -1.38092484582834      -0.02595770454441       0.61884499957013
H         0.42983057624604       1.82004313773501      -1.84634242943283
H         1.36270114966005       2.74218936143468       2.14928973766703
H        -1.27898755758188       2.93721396508448       1.83173949849004
H         2.40159017360713      -2.03390216398168       1.37944625870916
H         3.48120879752820      -2.26489895232747      -0.04889301222703
H        -3.54969611138188      -1.76069613160815      -0.72928598409166
H        -1.76837283928861      -1.93706359917405      -0.95320611851003
H         1.51547427155572      -3.05092061151742      -1.40017448505950
H         0.44526604898692      -2.82660337409253       0.04129064708013
H         1.76198208108761      -4.05547880303604       0.07953967045774
H        -3.31800498656914      -2.24997618585180       1.69915309941508
H        -1.52001680389477      -2.36058128978665       1.52420125650231
H        -2.58292377685885      -3.56801773122210       0.70863644784855
C         4.01106770309065       4.86061199946441      -3.21609112163344
C         2.60184378767991       4.83457157102167      -2.71473068968939
O         1.80122236263482       4.04613870382541      -3.18998739608329
O         2.24844923692880       5.59865726075038      -1.83116994125562
H         4.49981466488968       3.88721464769881      -3.00147524141194
H         4.01455431487077       5.03781885594696      -4.31234555083568
H         4.58904100879940       5.67025809784042      -2.72112285137702
