33
C9H10F6N2O4S2 optimized with ADF in AMS.
N         2.12352190664806       0.33428038041422       0.67605165804288
C         3.00055643616682      -0.76898992041298       1.15174302862203
C         1.70229242856932       1.25912048900591       1.56446553716272
C         1.80011774714056       0.42842324726731      -0.63072551025406
C         2.20977090229688      -1.77392299724233       1.96953334873959
C         0.91815663139980       2.31856556582634       1.15887379668238
C         1.00173386765369       1.46272933334599      -1.08059532581574
C         0.55766024347545       2.42447751765749      -0.18080259994944
H         3.45334301675538      -1.21145659304315       0.25512243395747
H         3.81882757171270      -0.29290313998756       1.71332266664133
H         2.04715119429631       1.13217950313967       2.58644219151344
H         2.22069946292626      -0.32809979970677      -1.28660452690735
H         1.78533458794902      -1.31341129496799       2.87427343830388
H         2.88240174626324      -2.58169011407732       2.29037584281075
H         1.39084352236891      -2.21283648771169       1.38029905914133
H         0.62560926598291       3.06894143196863       1.89226124896755
H         0.76713816061358       1.52357096035888      -2.14248932763563
H        -0.04679672708442       3.26516416663458      -0.52438158284076
N         5.32806942598973       1.46332935441185       1.10107505006726
S         5.92724095667490       2.34948628536822       2.31706819858411
S         4.76523939733807       2.10381046197683      -0.26656140008260
C         4.47075252191748       2.52409219085471       3.50789689885983
C         6.21434325792051       2.96938878054074      -1.16302883789352
O         6.83000246748217       1.50336203404333       3.07970386945861
O         6.27183113623590       3.72084990298902       1.97148442413201
O         3.74361763465525       3.14219309844067      -0.11507057690389
O         4.46060935492011       0.95877181717703      -1.13662420263784
F         4.87699234482395       3.10840125499366       4.65219877527568
F         3.95086670816110       1.29211904141449       3.83102945365402
F         3.45775937319410       3.26504221458668       2.98629994366163
F         6.01641001194044       2.83442073247290      -2.49801879677886
F         7.39242642248964       2.39798790230454      -0.84016925434960
F         6.25565137892218       4.27978356485612      -0.87009274752921
