38
C10H22BF4N optimized with ForceField in AMS.
N        -0.87579301887407      -0.17442893822120       0.04593973534371
C        -2.00725703703689      -0.28080473495886      -0.92610038673725
C        -1.21646369582538       0.99972920795645       0.90680303202697
C         0.39851516648545       0.08229588467345      -0.70168339116118
C        -2.84783459863032       0.97571958746464      -0.81451234951678
C        -2.64750259695690       1.40406285147743       0.61152275044403
C        -0.80312240280363      -1.40891210698170       0.89336664991844
C         1.65878693113857       0.19232332465537       0.19059345727457
C        -0.44763985728823      -2.69333520033604       0.12401868245407
C         2.86979399482832       0.64182972866727      -0.63681154379508
C         4.12784859874782       0.73533979661972       0.22174393095981
H        -2.68046632829928      -1.13853962283582      -0.69642263228312
H        -1.67327390551888      -0.41943391487037      -1.98012322036631
H        -1.09943706350957       0.79783789564871       1.99626027202025
H        -0.57900151200927       1.88601454351623       0.68243682349833
H         0.57658817439174      -0.71711583561935      -1.45430879987605
H         0.29935318169967       1.02393942877878      -1.29091815156894
H        -2.45490693251800       1.75561297764558      -1.50384279776406
H        -3.91961605429811       0.78235660813445      -1.03754071981215
H        -3.34410806720916       0.84608997377070       1.27567598539331
H        -2.80530121954496       2.49514752785826       0.73896514310112
H        -0.06323525679402      -1.28276813650871       1.71374483040473
H        -1.78034205794995      -1.57638467242681       1.40291062603768
H         1.49549295902866       0.91920536331867       1.01314549843983
H         1.89311200634455      -0.79516638529258       0.63957544271172
H        -0.55057590919000      -3.56398355832305       0.80510035392306
H         0.60258730581701      -2.67219326732884      -0.23050398383478
H        -1.12184750501182      -2.85411609851447      -0.74128846734221
H         3.05001239114349      -0.08423045471431      -1.45894791012675
H         2.66794994549039       1.63854359825707      -1.08537757763018
H         4.36667596767860      -0.25368631219280       0.66689423534244
H         3.98668352015824       1.47981885555825       1.03369903283767
H         4.98405326534447       1.05613676964637      -0.40885069353202
B        -2.61141502826658       5.24993250665843      -1.44808011620317
F        -3.04614490641006       6.57005863431082      -1.73938751844130
F        -1.19701664459730       5.18128596915513      -1.55727681905717
F        -3.20220704212244       4.34303723947092      -2.36765463153958
F        -3.00144592893215       4.90797708158221      -0.12695894854365
