29
C9H17ClN2 optimized with ADF in AMS.
N        -0.09831990410798      -1.23330164987563       0.18453414048073
N        -2.00701156670139      -0.20480565687414      -0.04066297257696
C         1.27101830645275      -1.55997004905115       0.59813855049451
C         2.33844259304483      -0.69967528838306      -0.09580052550578
C         2.89243584943255       0.40826061247234       0.80011680614246
C        -0.81024421845010      -0.15831870059841       0.58145066795969
C        -0.80555907360597      -1.89011146585798      -0.80989308139308
C        -1.99777801479828      -1.24832558273543      -0.94816882499469
C        -3.03832717904889       0.83478462666831       0.05825930455351
C         3.83121503164163       1.33083889519775       0.03071643800910
C        -3.13988740064282       1.66151573142402      -1.21539571675308
H         1.31886106258358      -1.44259236847499       1.69295707273492
H         1.39743186124591      -2.63079236713693       0.38169899836927
H         1.88706391780690      -0.23557157018206      -0.99010634224783
H         3.16270775178038      -1.35407433580725      -0.43083455313324
H         2.04631050709735       1.01297016622453       1.16971567140629
H         3.40989798383599      -0.04408694956099       1.66759796907428
H        -0.55141395396051       0.50166290634978       1.39568277572845
H        -0.40377223267459      -2.75755677355662      -1.31675260815432
H        -3.98707439348434       0.33472399943737       0.31423770705419
H        -2.74450870366280       1.47629550459145       0.90113823818193
H        -2.83538381836164      -1.44749263690597      -1.60397893372630
H         3.26177237632409       1.84692276555507      -0.75831253055931
H         4.65740988297692       0.76727017226336      -0.43414900826973
H         4.26726684469476       2.09656693767218       0.68986543912695
H        -2.15506607113329       2.11327747042415      -1.41790021230933
H        -3.88785020682421       2.45492412023966      -1.06937795975307
H        -3.45386019367798       1.04821594377813      -2.07270390627102
Cl        0.20996544921715       2.06565501650251      -0.49120515046856
