31
C9H19NO2 optimized with ADF in AMS.
N         0.95267659172095      -0.76584449421265      -0.50918064812454
C         0.94181761693463       0.73659459364820      -0.76089737302154
C        -0.46201205602147      -1.28917675607202      -0.48657567213477
C         0.10119929812188       1.47530977880579       0.25858590568781
C        -1.34608550912678      -0.56325201984723       0.51800830592712
C        -1.33266760973162       0.94908168251923       0.28584911146208
C         1.67326117122016      -1.07242272578997       0.77588877762114
C         1.72310696616879      -1.39680298807139      -1.63180855520946
H         0.53146031520753       0.85826371337188      -1.77701180297360
H         2.00222962060998       1.03897816437991      -0.73919376605698
H        -0.40092859220125      -2.36923916894824      -0.27965545875214
H        -0.85187566854212      -1.14895412986085      -1.50798348498377
H         0.12295466050814       2.54306401496105      -0.01530301347589
H         0.57774777358337       1.40814460685661       1.25111228917005
H        -1.02467272538167      -0.79417513800248       1.54762809114202
H        -2.36670133460457      -0.96825268446553       0.41307614278509
H        -1.92523520632629       1.45722532427549       1.06369204268293
H        -1.81584394149790       1.16879136321366      -0.68486439139894
H         1.05404515634391      -0.76136345650193       1.62254648478561
H         1.84250644971062      -2.15675286339597       0.81468317658179
H         2.61243797878150      -0.47178832586415       0.77140613212299
H         1.18328910563120      -1.20040033193520      -2.56807974275512
H         2.72103456183327      -0.89873135983279      -1.64243545198032
H         1.78219468901160      -2.47758711154849      -1.44631550487615
C         5.82949107822363       1.54164237820160      -0.34001103830320
C         4.41024542340784       0.96738478497037      -0.38463349383091
O         4.05223835577384       0.43496389090444      -1.48202450376131
O         3.70686838158282       1.06136510855656       0.67157465637406
H         6.54905228118147       0.72344054000893      -0.49779009682758
H         5.97080540971758       2.25597739112804      -1.16491921362414
H         6.03559265285895       2.03098724814711       0.62116913144768
