46
C14H29NO2 optimized with DFTB in AMS.
N         0.63357363566984       0.11173680785499       0.52896971385833
C         1.84590621288232       0.64981813207469      -0.18636588171799
C         1.17609506601068      -0.63513223995304       1.72665942801721
C        -0.22742253279980       1.24478014795851       1.00547609549661
C        -0.10274328735364      -0.81172783177739      -0.39198287416001
C         2.94582843471725      -0.35882576006576       0.08759285883724
C         2.68698554753210      -0.76170928052865       1.53589798766500
C        -0.77070645515045       2.12588029086351      -0.11642861225377
C        -1.41803675085875      -1.35440492438609       0.16604687948545
C        -1.12886950087474       3.50093481581093       0.46198994797242
C        -1.96539200848671      -2.43795584279274      -0.77110302546871
C        -1.72769569999754       4.41211586868480      -0.60598583133161
C        -3.29489907498397      -2.98768919132905      -0.25872806408471
H         2.07691597542432       1.62719541554338       0.26329131477455
H         1.62459677053495       0.77215496068701      -1.24638991976350
H         0.68192431812817      -1.60441404810863       1.79678309216105
H         0.95781353436704      -0.04396667062159       2.61665967926567
H        -1.03867351571167       0.82084132289856       1.60074051619017
H         0.41686526657083       1.83721534035923       1.66036712643923
H        -0.30118455966442      -0.26147074017562      -1.31522378489284
H         0.57618741745160      -1.63741428849261      -0.62193408170042
H         2.87164205363020      -1.22039965347592      -0.58359592949331
H         3.92780675729812       0.09829068286200      -0.03894272440945
H         3.18322145187977      -0.05920760515401       2.21022660987329
H         3.03197735815459      -1.77408107930409       1.75161122124396
H        -0.01284336164643       2.26406379735890      -0.89104458517759
H        -1.65047399833470       1.66674627815475      -0.58044471581061
H        -1.27197227705709      -1.77960378992270       1.16244061214145
H        -2.15286372805130      -0.54942192812616       0.24740116613478
H        -0.21563114232186       3.95158524019344       0.86369035570911
H        -1.84174061844421       3.37827252869653       1.28414766250938
H        -2.10555411097242      -2.01561652560603      -1.77164959793420
H        -1.23828008155544      -3.25306572975123      -0.84978413661585
H        -2.65399353057315       3.99019466203994      -1.00061150690347
H        -1.02685385462583       4.54442056348603      -1.43139744627999
H        -1.94662554383578       5.39010924612381      -0.17740144793403
H        -4.03873644924528      -2.19255809075217      -0.19682873170498
H        -3.17087614867819      -3.42604781422819       0.73219104057867
H        -3.66376273695797      -3.75748120910285      -0.93624805281630
C         3.28708357509736       3.89948358993432       3.19700062727115
C         2.39696892437664       2.91751277776171       2.40395423873565
O         2.01798545103736       3.28844467112534       1.26988309402272
O         2.13307468356527       1.82284844666725       2.94857372262962
H         3.20345238632557       3.70493321427564       4.26444922545505
H         4.32150229776533       3.74770593317596       2.88834837226950
H         3.00064500146200       4.92535417126320       2.97352908171609
