62
C16H36F2N2O4S2 optimized with ADF in AMS.
N         0.72722450999828      -0.33305828647538       0.49376451800397
C         1.95898604786797      -1.15046094790398       0.88512586206890
C         0.11827622190470       0.23878646879105       1.76882917095248
C        -0.26024580642209      -1.25076300417436      -0.21180455639827
C         1.09541767213569       0.80987058224532      -0.42800499426889
C         3.14179169313631      -0.34366003794334       1.38639395187964
C        -1.18990687759195       0.99018390077095       1.61399967332017
C        -0.86908817355951      -2.32827907351698       0.66388307010403
C         1.76498064422661       0.41957063685654      -1.73596009784469
C         4.19966841691967      -1.29214454925301       1.95771028174243
C        -1.71071680994636       1.36037118221980       3.00792665261706
C        -1.73524640111468      -3.27567938064534      -0.16814169337118
C         2.18147634564258       1.67569878099822      -2.50663426326625
C         5.38200400921884      -0.52153785801608       2.53538224570630
C        -3.03204599054793       2.11693712332668       2.93822416372027
C        -2.33905939107057      -4.37366468498648       0.70379390148341
C         2.82752956898395       1.34520386612812      -3.84865707175270
H         2.22576783723371      -1.74936760631617       0.00195342389208
H         1.62729710716141      -1.82633207808539       1.68396622826939
H         0.88702132412323       0.88645864947631       2.21081137848286
H        -0.00617880291815      -0.61248362843071       2.44655295638993
H         0.29661677282613      -1.70586033601745      -1.04318375062315
H        -1.03762963127281      -0.60043600999195      -0.64137803476957
H         1.74841935195274       1.47292664664026       0.15787471682539
H         0.16084696671657       1.35179349291808      -0.62982995953954
H         2.83542285192876       0.32674413435675       2.20433069051442
H         3.58851152696481       0.26608618458605       0.58158731685511
H        -1.94892162917477       0.36860015442253       1.10951766232590
H        -1.06490525245802       1.91104871631179       1.01812005865600
H        -1.48689232333551      -1.88633574312933       1.46007318512312
H        -0.09102523509100      -2.91703838714540       1.17229446008402
H         1.07891513700758      -0.17186084978155      -2.36478365203770
H         2.65846224275493      -0.19906491363652      -1.55054065832210
H         4.54128107392866      -1.99272520471411       1.17296663051390
H         3.72573227470294      -1.89243689403561       2.75245198111564
H        -0.95280373805544       1.96378929359037       3.53665568256511
H        -1.82701727171297       0.44064307351433       3.60579548014007
H        -1.12264569045794      -3.72944050754870      -0.96882627368861
H        -2.53952179155318      -2.70586613950672      -0.67035964142779
H         2.88515204950225       2.26330347260919      -1.88965552855854
H         1.29619141080109       2.31717290533633      -2.66862070781814
H         5.03936334650086       0.14007478951944       3.34650645015447
H         5.87430655119721       0.09769090619045       1.76692737943355
H         6.13450592112639      -1.20668585085772       2.95223114004792
H        -3.80737418235829       1.51310669660274       2.43873790873336
H        -2.92532237970980       3.06001760890237       2.37712612444278
H        -3.39534646260221       2.36252482730816       3.94663974786633
H        -2.97315326247507      -3.94143908493555       1.49374488034080
H        -1.54655749574863      -4.95242880243601       1.20349787091271
H        -2.95337198006744      -5.06424911770496       0.10787021119630
H         2.13272565229165       0.78619763576292      -4.49591259559889
H         3.73069818473852       0.72882969275325      -3.71209953578020
H         3.12212835562213       2.26060483561869      -4.38190818900084
N         1.40378125020291      -1.69027307107741       4.11952752644177
S         1.47324838805175      -0.44263409523984       5.14421331054682
S         0.36560722605245      -2.89172842027178       4.37339038259824
F         2.24549685193347      -1.06919637162004       6.44854198222335
F        -1.10744405131482      -2.16889362321529       3.99026754292963
O         2.42119206887570       0.50540868682281       4.57783416070758
O         0.19676305639183       0.02308188352453       5.65064078485971
O         0.18761826077886      -3.33508900723503       5.73777749812669
O         0.55100125805599      -3.83805790675586       3.28373316845343
