45
C11H24F2N2O4S2 optimized with DFTB in AMS.
N         1.32344298700345       0.50661976764838       0.26451405376141
C         1.53151789530340       0.45077224746014       1.74706315319189
C         2.71642495573392       0.45724744738488      -0.28247320151239
C         0.52678640073189      -0.66293841489626      -0.23541600100633
C         2.77558808664388       1.29058873296466       2.00730775316814
C         3.55507445972772       1.29460088857965       0.68269235699079
C         0.68069280473943       1.78758404510342      -0.13145844538582
C        -0.90574307072832      -0.72596052993086       0.30947756482906
C        -1.95701770048209      -0.26666749659752      -0.70693146223066
C        -3.34843621267740      -0.25804173268428      -0.06547543486730
C        -4.41560784220978       0.20789409129219      -1.06003200587991
C        -5.79678443665512       0.24824223826538      -0.40858172132498
H         1.68231790713219      -0.59459681628300       2.02328914200605
H         0.65460822584785       0.84004558231838       2.25536299356684
H         2.71885760472116       0.83054893118054      -1.30711212516245
H         3.03917430240671      -0.58646022955752      -0.27728738139638
H         1.08209584550193      -1.55689679080616       0.05964026693838
H         0.53035035416245      -0.60113295706030      -1.32783895085887
H         3.35936406003346       0.85510450309765       2.81918013664539
H         2.49134387925590       2.30365632133776       2.29789053361642
H         3.67795517701034       2.31178803292049       0.30571645071417
H         4.54657285476345       0.85265750517378       0.79464954401883
H        -0.30285921743164       1.84932927080317       0.32289300442237
H         1.28696399234353       2.61554315920564       0.22579191488838
H         0.59950798643069       1.81967158911223      -1.21653508013911
H        -1.11155209722041      -1.76461575191347       0.58400793327417
H        -0.99911542866292      -0.13318163628155       1.22015896913853
H        -1.94743435142946      -0.93811847568559      -1.57299541777654
H        -1.71977961630891       0.73995500704624      -1.06521979971052
H        -3.33795445505221       0.41201309947873       0.79913966518657
H        -3.59107876351451      -1.26438284338822       0.29164572741134
H        -4.15765430960000       1.20707234898847      -1.42740783947811
H        -4.43614237807958      -0.47007083653587      -1.92070592666378
H        -5.79786690162734       0.93525026370893       0.43832799880092
H        -6.54143291375705       0.58438128370900      -1.13052301439347
H        -6.08033587628588      -0.74293588613827      -0.05187327177529
N        -1.56223785551713       2.39094456724906       4.22497773761275
S        -1.21874085621115       3.06224224540190       2.84148823964669
S        -0.90728408202998       0.97252742998455       4.52050489790937
F        -1.89784940646626       2.06111040096885       1.70596423503699
F         0.69746192257453       1.27519885635899       4.59339938845873
O        -1.95145223025279       4.27255137157812       2.71474106441370
O         0.16609111643101       3.05471222117555       2.43878861365163
O        -0.99557459015369       0.00668718878695       3.45860364357759
O        -1.26321522604532       0.57521694027519       5.83608002028476
