35
C11H17F3N2O2 optimized with DFTB in AMS.
N         0.20215429333316      -1.20944302433121       0.06618413165837
N        -1.87405492339686      -0.65129595232831      -0.04637981169671
C         1.51482372518017      -1.53554660149643       0.61735283127465
C         2.62297936321020      -0.81981630301664      -0.15143442297729
C         2.49950531560696       0.70351252277622      -0.04015257287281
C        -0.79547601448831      -0.64215775086111       0.73725799713056
C        -0.25542578053420      -1.62086437131474      -1.15843597678802
C        -1.56436431344334      -1.27004796624052      -1.22791957668410
C        -3.21637857373522      -0.33660424084493       0.43048416457042
C         3.60039413909746       1.40986116819029      -0.82881968057522
C        -3.33456522217838       1.13548697979985       0.79980178070092
H         1.51423914872263      -1.24130562154015       1.66913665278808
H         1.62574888500290      -2.62233698109033       0.55455650382790
H         2.59339162940128      -1.11934071706588      -1.20359525615863
H         3.58160881666286      -1.14387297030801       0.26309516137302
H         1.52041415045883       1.01711608127278      -0.41910958443751
H         2.55886853808653       0.99580027234474       1.01349801627415
H        -0.74191676492392      -0.24277305281405       1.73448973216199
H         0.37097291231775      -2.14600012954478      -1.85696787144005
H        -3.92112672183125      -0.59726111164900      -0.36211794236884
H        -3.38986142314389      -0.98116790320754       1.30056655561362
H        -2.29407923791083      -1.41538932061969      -2.00485334706293
H         3.53804402083506       1.15172740166220      -1.88677236889055
H         4.58328077347683       1.11810501822404      -0.45726146029972
H         3.49677284080407       2.49013545547907      -0.72734644226853
H        -2.64287610935241       1.38671562199015       1.60298590400534
H        -4.34986013977633       1.33751670605796       1.13782330546690
H        -3.11694166369497       1.76591956860723      -0.06251323230103
C        -0.93214381859866      -3.14090488967022       1.98254955854859
O        -1.82484179972498      -2.32698403376704       2.24398201088431
O        -0.60544478316340      -3.69659276418073       0.94382745182365
C         0.08607847823214      -3.37608848632941       3.22196186001527
F        -0.46081320344906      -3.89918967480464       4.32506999695482
F         0.60635449170285      -2.16617144854533       3.57693385198530
F         1.13990195831431      -4.14164013743382       2.89224947896407
