39
C11H19F3N2O3S optimized with DFTB in AMS.
N         1.19596095059752      -1.38034886411192       0.26219887345504
N        -0.64123962239815      -0.54675285411362       1.01777161752243
C         2.61838092841078      -1.71877440564498       0.19691470553580
C         3.25963561594871      -1.24480146813150      -1.10733070675248
C        -1.56772462104953       0.16947594384498       1.89261169131462
C         0.61665733177491      -0.83941417685518       1.33106528694334
C         3.11180959812418       0.26412694351789      -1.33050205839978
C         0.28425423925683      -1.43653142748641      -0.75882060423872
C        -0.87406972409558      -0.90925131022341      -0.28290197487154
C        -2.00456015630589       1.49209638208921       1.25641016928021
C         3.74857592706145       0.68538382256303      -2.65230405121724
C        -0.83412263302175       2.44810257417098       1.04018378647051
H         3.09311446016004      -1.23337872949204       1.05327613624168
H         2.71882045951727      -2.80454513696331       0.29652938263416
H         2.82845406166813      -1.79306223445572      -1.95193056855802
H         4.32155223499150      -1.50459856255968      -1.05359394162367
H        -1.04247830322629       0.35350815605347       2.83352298592126
H        -2.43391624376312      -0.47413911214059       2.07493670390934
H         1.07009152884334      -0.69236738437176       2.29598704234302
H         2.05098906686027       0.53195644748630      -1.33453337243096
H         3.58330196257295       0.80519474209690      -0.50665666112577
H         0.52063714053776      -1.84190792179764      -1.72645131980570
H        -1.82845640339905      -0.77003434083425      -0.75928767358257
H        -2.50883413783417       1.29068936007814       0.30541322189887
H        -2.73486491227466       1.94819526834710       1.93159184072573
H         3.27137347929829       0.17551390819439      -3.49151027953868
H         4.81262035811308       0.44434326820377      -2.65954785330640
H         3.63558712614694       1.76056841709477      -2.78984881961020
H        -0.08043087335375       1.99500441074514       0.39650654487843
H        -0.36814823973952       2.69924242338884       1.99170751001600
H        -1.19237571065758       3.36436876038726       0.57167176131887
S         2.16398125355584       1.64321309227831       2.74900404270201
O         2.20250325398849       1.20116810548275       1.35515536151582
O         1.00291452360503       1.13216540222336       3.46956385128847
O         2.47876475725329       3.02634049262653       2.97030063162571
C         3.55384308190606       0.65688559839962       3.48001444858220
F         4.70927188679540       0.90176461369170       2.87469475070841
F         3.26957492655177      -0.64710885593771       3.28409591080452
F         3.70509811417922       0.84760210515527       4.77990484512526
