20
C6H8BF4N optimized with ForceField in AMS.
N        -0.71000403062827       0.00014272380987       0.02105949865337
C        -0.03211437542013       1.18813588939930       0.01068135918002
C        -0.03133036125838      -1.18742915758386       0.01017635961332
C        -2.17445010844430      -0.00015313972700      -0.00359313487894
C         1.36460297175188       1.20650630326999       0.00196442513026
C         1.36555833674042      -1.20474706702342       0.00145175423399
C         2.06393958088387       0.00133710887551      -0.00324593232596
H        -0.56939414410107       2.12965062148398       0.00600272162365
H        -0.56815600954602      -2.12927895919816       0.00512666144782
H        -2.57823707616334      -0.89693736170265       0.51455353159715
H        -2.57851426124759       0.89661223260284       0.51440934058830
H        -2.52637654630994      -0.00020884683028      -1.05667710363055
H         1.89947999627138       2.14787243501558      -0.00518284537684
H         1.90087281078433      -2.14592726162388      -0.00607783415849
H         3.14490363659161       0.00299769304009      -0.01483206794783
B         6.78458884324092       0.39308382869006       0.36422365920776
F         5.66178148661251      -0.43409439039557       0.10195899546076
F         6.68059814580402       0.93215088853097       1.67419145856897
F         6.82509026829310       1.45166750154304      -0.58196248463771
F         7.97132190954498      -0.37998425387642       0.26220766455095
