22
C6H8F6NP optimized with ForceField in AMS.
N        -0.70400973830926       0.00070903043590       0.02081048573778
C        -0.02614622208290       1.18846544941783       0.00765640154131
C        -0.02514621263104      -1.18638748103905       0.01175094369347
C        -2.16807122950013      -0.00039737328983      -0.00077702007092
C         1.37096970288269       1.20648266130682       0.00060015108513
C         1.37133420976391      -1.20470168305001       0.00281888980530
C         2.07097653116873       0.00082999601752      -0.00171482367690
H        -0.56296652197964       2.12990419657146       0.00050757051331
H        -0.56002379140427      -2.12714483377215       0.00967636685038
H        -2.57037145373059      -0.89748235592051       0.51808646146826
H        -2.57140914258713       0.89569084051039       0.51889390618546
H        -2.52289862408604      -0.00031139959318      -1.05292958679481
H         1.90466472651156       2.14795743963962      -0.00706620931312
H         1.90430526363007      -2.14669017229519      -0.00400879101144
H         3.15321159103027       0.00060170265960      -0.01098619183980
P        -1.69653246810597      -5.65091800645552      -0.14793664121169
F        -0.31441253484115      -5.04677952071529       0.67502654740535
F        -2.57794534620048      -5.62250410834223       1.32639795887879
F        -2.22737974320465      -4.05302819855986      -0.48570818456086
F        -3.07781716165263      -6.24851234399518      -0.97611585127922
F        -0.80147694437125      -5.66682763338655      -1.61429795900083
F        -1.21708556680010      -7.26935272634459       0.17222111629506
