55
C15H20F18NP optimized with DFTB in AMS.
N         0.36770391641125       0.21612915196138       1.06854672361492
C        -0.34318789391548       0.97827998805385      -0.01033078633670
C         0.25362324279502      -1.25518771779283       0.77499368577132
C        -1.80197575964072       0.56447005738298      -0.16926383266266
C        -1.18659444118958      -1.72482311402796       0.61875291347058
C        -0.20670050663218       0.50175025856158       2.43000206670773
C         1.82396545607593       0.60813386512617       0.99768276869340
C        -1.91119199420252      -0.93055894501528      -0.46434209827052
C        -0.07504304788155       1.93956731439219       2.90186834439271
C         2.70912542883339       0.01022540712923       2.08045080876805
H         0.19884280273719       0.78788847974228      -0.94126051218035
H        -0.26603931926256       2.04121279937812       0.22574035175532
H         0.73502501427483      -1.79246957061983       1.59135982843350
H         0.80980166986081      -1.43720843820355      -0.14923911605620
H        -2.21610168038408       1.14146232028629      -1.00030712121611
H        -2.37344718288934       0.81671564538010       0.72722522257571
H        -1.72032493802163      -1.64837804937876       1.56756612993455
H        -1.15180307623431      -2.78274355617133       0.34682112976170
H        -1.25872112531462       0.22052046874835       2.40878989899452
H         0.30689288872297      -0.16308933514459       3.12052188003222
H         2.17687598702355       0.29460927853670       0.01129993641339
H         1.86176890759186       1.69921031587966       1.04159728177332
H        -2.96304815337844      -1.22267869305677      -0.49625609570512
H        -1.46726877377482      -1.14411362949897      -1.44235655280875
H        -0.51587390865825       1.98302252335106       3.89777610699452
H         0.96404046899555       2.25228333923287       2.98268442595884
H        -0.61079586436065       2.63553378407412       2.25770000101137
H         3.73886444493169       0.27698348411850       1.84269566407816
H         2.47229659825428       0.40956424376631       3.06320327007052
H         2.63606507891848      -1.07401157128696       2.11768297860878
P         0.85278517787234      -2.18717987074784       5.62671899816665
F         2.33342129927277      -2.93767812826294       5.65360040551241
F         1.44194646588418      -0.98390879976549       4.55226442005922
F         0.21504360104743      -3.36432330754026       6.61718926916546
C         0.56970232327785      -3.27212239001619       4.00196344224530
C         1.49901899514712      -1.06631573833624       7.14267260229386
C        -0.97268041223913      -1.29329971630760       5.65807471663214
C         0.36494594434599      -4.80505463025488       4.09310043955490
C         1.28496323824048       0.48331924437678       7.18738975361852
C        -2.30554060238610      -1.78316240969579       5.01796290023600
F         1.63248583019167      -3.09980162978936       3.18091658021781
F        -0.48963291489771      -2.78055893229318       3.30363109289367
F         2.83675988756079      -1.19900055453422       7.18761028656172
F         1.01786357779755      -1.54368229527822       8.30007826108232
F        -0.83611522986340      -0.01591911663667       5.20469724669773
F        -1.23773643676695      -1.20875949673691       6.97549037025820
F         0.22860664548480      -5.30608619306967       2.85629915946225
F        -0.72697941834378      -5.12133663278218       4.77655168174132
F         1.40829742049278      -5.39527534697657       4.65854709454776
F         2.14357302819480       1.00950439191688       8.06366927345332
F         1.52454521488548       1.06608265724893       6.00713632006022
F         0.06420281298131       0.83221716240138       7.57249610262649
F        -2.42448639768117      -1.31301225337292       3.76109092606632
F        -3.34873710534340      -1.31664761555607       5.69919233094817
F        -2.40440740254180      -3.10430037329564       4.97487668541958
