32
C8H18BF4N optimized with DFTB in AMS.
N        -1.02595516332190      -0.22102271379456       0.11182628961959
C        -2.13999446500570      -0.32208510139977      -0.88759344488410
C        -0.81532074494078      -1.63928120846786       0.53125895365420
C        -3.08720030586849      -1.36838035746734      -0.31381282258661
C        -2.22171162376327      -2.23468173568911       0.61652150408624
C         0.17446233667734       0.37923311097405      -0.55059995153104
C        -1.44960146058041       0.60859701112185       1.27559449120750
C         1.38385101179394       0.51107155833695       0.37088168634073
C         2.56397094676223       1.07743787450021      -0.41833898557185
H        -1.70497543778450      -0.66026417116571      -1.83060561551534
H        -2.60068459780553       0.65526251654135      -1.02443983348884
H        -0.27342938423804      -1.67341973434943       1.47636886959693
H        -0.22472028685171      -2.13299444032087      -0.24432857825995
H        -3.52891607798867      -1.95886029797727      -1.11789589405794
H        -3.89810373330028      -0.89124104602476       0.23998886329789
H        -2.59317512242306      -2.19462208699443       1.64246898260344
H        -2.20626644782573      -3.27929123279219       0.30141048089521
H        -0.13907264486975       1.36245205421475      -0.91398253414241
H         0.42228812573052      -0.25573257002295      -1.40573748728322
H        -1.43885995127034       1.65387456890965       0.97431074681628
H        -2.46161477185787       0.33469893250034       1.55902261492353
H        -0.76814407005943       0.44040294343173       2.10666441138943
H         1.15550480039815       1.18352709663233       1.20128112026568
H         1.65552004738675      -0.46471497698980       0.78543087666926
H         3.42822348645089       1.18187619535118       0.23654963241363
H         2.82848265234351       0.41453373508825      -1.24284841936563
H         2.31301694326576       2.05723696927217      -0.82441428706724
B        -2.94522688236685       2.87635197968218      -0.84895568958430
F        -1.51860023454722       2.80630449843138      -0.68881564167225
F        -3.49167289783005       2.10334704255258       0.21443177134452
F        -3.25721229228720       2.23040898983712      -2.05048605860487
F        -3.37828775512228       4.16686844407797      -0.80685428980847
