49
C15H31NO2 optimized with ADF in AMS.
N        -0.23004177794111       0.06176571000327      -0.18934183063628
C        -0.80442961033180      -0.52846214277787      -1.47404330609245
C        -1.01224719234608       1.30315004641875       0.17674541984090
C         1.21596097455570       0.43400339451815      -0.50199308260579
C        -0.29755277029075      -0.93500369232192       0.95236511495085
C        -2.29392577128817      -0.79333104438237      -1.38400993260426
C        -2.51486523741512       1.07335990866404       0.27167847765247
C        -3.06878997200616       0.47238417517576      -1.01935748964634
C         2.00716042353325       1.02511561419021       0.64877253991002
C         0.49994793893223      -2.20986206111310       0.74048582786094
C         3.44179829277771       1.30282859415198       0.18303230844973
C         0.37491521839034      -3.13618244059972       1.95076105618095
C         4.30562051210342       1.90891846126263       1.28462027274808
C         1.14167012906407      -4.43941612734299       1.73646624710347
H        -0.17602741535631      -1.40492042008192      -1.71149702785446
H        -0.55947448701876       0.19815268767019      -2.26478664101197
H        -0.78888786253154       2.03030363360193      -0.62018493764462
H        -0.60226248867726       1.68361232500887       1.12262332754442
H         1.16169446904117       1.12206839898082      -1.35894197515390
H         1.65962112016297      -0.49336735273261      -0.92004734485985
H        -1.35861345776740      -1.17310711560603       1.10235149209966
H         0.04640330352339      -0.39685623806318       1.84913477160269
H        -2.51728867907388      -1.60136277925849      -0.66438080984397
H        -2.60680530134986      -1.16891132387514      -2.37222299707470
H        -2.98073927256392       2.05120297782970       0.48187560714232
H        -2.75613997202848       0.42640222137726       1.13235039089574
H        -2.95785412304898       1.20839674065115      -1.83670276940930
H        -4.14583513707302       0.26318064862888      -0.91436965897171
H         2.04960036659891       0.33163158169649       1.50702367882647
H         1.56669381543589       1.97048509247365       1.01425683055265
H         1.56088579472064      -1.98495374334270       0.55590629279032
H         0.16286056030691      -2.73430040586688      -0.16596673279383
H         3.41705898544913       1.97903023542474      -0.68913699007910
H         3.88937273815760       0.35984754329834      -0.17481659213264
H        -0.68988625854334      -3.36205252438949       2.14638527238299
H         0.75659105098142      -2.62564628856642       2.85434446973509
H         4.36907153395737       1.23687141781098       2.15593137248678
H         3.89401944022316       2.87074252038830       1.63165382023533
H         5.32976598927608       2.09135160952802       0.92594665895006
H         2.20823893772418      -4.24007682228003       1.54851096216765
H         0.75268539967453      -4.98368304812177       0.86189806075451
H         1.06322914548610      -5.09720880292128       2.61507097262879
C         2.79409352658818      -2.16658615718558      -4.24413582556371
C         1.92511288737858      -1.42454670400253      -3.21624887638459
O         1.73086521599789      -2.05181242750528      -2.11329167919744
O         1.49521032041297      -0.27691239812447      -3.51703678537370
H         3.84661229098830      -2.11892453342438      -3.92101190808809
H         2.51633073789947      -3.23054797473605      -4.27661083856607
H         2.71237613181037      -1.71655734763193      -5.24320593970411
