28
C8H18ClN optimized with ForceField in AMS.
N        -0.00008951329838       0.02525955575978      -0.00552602970011
C         0.90336906303779      -0.84625443980195      -0.81777204678096
C         0.91927167321993       0.85864188669799       0.82867223802487
C         2.31911511411949      -0.32761352863152      -0.66636167683118
C         2.31684806274314       0.28400873845019       0.70541970870087
C        -0.86140900109350      -0.81063352317056       0.89261046456207
C        -0.80541103885477       0.89495409306978      -0.92397826833866
C        -1.84575952906513      -1.73845812192999       0.15906118654469
C        -1.78177927572254       1.85062296120040      -0.21612029684511
H         0.62716555169814      -0.88481292194463      -1.89654753162418
H         0.90940830149544      -1.89927516700510      -0.45425115738988
H         0.62255977179481       0.90391647191645       1.90180165915698
H         0.97271618335944       1.91234695513029       0.47072574744153
H         2.51864956641361       0.45702680701728      -1.43021094987425
H         3.07317417314616      -1.13976559179519      -0.75468477030623
H         2.46903369128460      -0.50856792307641       1.47209483874796
H         3.10144467754018       1.06459340723051       0.80976457236664
H        -0.22012986430589      -1.44537435237003       1.54641624546735
H        -1.44608843379732      -0.16889651564298       1.58692951081461
H        -0.12381338508027       1.51291553849143      -1.55305266937098
H        -1.39051293799542       0.27689946625174      -1.63938137986666
H        -2.33553991983713      -2.40366965866364       0.90158061944379
H        -2.64377464436458      -1.15773995751984      -0.34562448175702
H        -1.33207071894574      -2.38122715349619      -0.58420951457305
H        -2.23540226980000       2.52690959594061      -0.97161677474246
H        -2.60937284039756       1.29371684869951       0.26750726100814
H        -1.26822287512438       2.47997169414740       0.53874129004879
Cl        0.51960969512991      -4.51744286155533       1.42490502747245
