39
C11H21BF4N2 optimized with ADF in AMS.
N        -0.95991426866034      -0.48538788890269       0.58900599669471
N         1.19400984665687      -0.73718261488209       0.64581496554378
C        -2.31007783165536       0.00670552223600       0.91858037827043
C         2.60108457426026      -0.56359117837756       1.05098341695063
C        -2.99068942623304       0.64588574477258      -0.28672908894660
C         3.48529884789136      -0.15768957334567      -0.12297597734752
C         0.15665966943898      -0.13091938876957       1.23615844696184
C        -0.62643253050112      -1.33287826944753      -0.44896370793965
C         0.72912515940125      -1.49172725695774      -0.41268232544059
C        -2.22876808152035       1.85331564580283      -0.82535669168575
C         3.05997449729765       1.16210808511092      -0.76013488003869
C        -2.94914455039413       2.53315936095285      -1.98406755803497
C         3.99026954964910       1.59397410014201      -1.88830311932404
H        -2.88552168926442      -0.84645020313842       1.31131920874808
H        -2.16494648042057       0.75332594887509       1.71337290704971
H         2.59020993464796       0.23149635220942       1.81227681630074
H         2.93331099655243      -1.50986846196785       1.50672553458614
H        -3.99971286780990       0.94940512793747       0.04674281246728
H        -3.14891781260363      -0.10610689006754      -1.08305405835271
H         3.51777194129370      -0.96592110440095      -0.87867599662393
H         4.51340493296399      -0.07435448634602       0.27342036584221
H         0.21642833731080       0.56912999694192       2.06548538050610
H        -1.36986720363139      -1.74158510325889      -1.12098673372694
H         1.39235925165479      -2.06306464446346      -1.04901784540603
H        -2.06215283061631       2.56798235640060      -0.00329695264436
H        -1.21847222090280       1.54533697216159      -1.14234436253398
H         2.02791456909899       1.07640402262353      -1.13915628317710
H         3.01277265972946       1.93965698711711       0.01971803089657
H        -3.94376946739392       2.89586359562621      -1.67792582425944
H        -3.08805026057226       1.84533112665395      -2.83459660410788
H        -2.37151285176783       3.39874349556776      -2.34103611549653
H         4.01702216488413       0.84685026590559      -2.69913306890692
H         5.02103996155343       1.73322090391236      -1.52428170266157
H         3.65559071234867       2.54891139190149      -2.32028943724254
B         0.51958530028474       2.93482044692623       1.78017680219552
F         1.56910302281041       2.19228144362597       2.43827707775781
F         0.54285627022933       2.58740167293069       0.39758626954528
F         0.67454110367676       4.30370615030550       1.96607149287305
F        -0.73150971818771       2.46914516278629       2.33279167140784
