44
C12H24F3NO3S optimized with ForceField in AMS.
N        -0.22906600941828       0.30687201128813      -0.16738126111538
C        -0.92526200588742       1.27819625937079       0.74023949147132
C        -1.12907673469316       0.00828524080553      -1.32914791684050
C         0.12609730441378      -0.93673936903690       0.60295184534774
C         0.99490642720358       0.97334823460660      -0.73295325649922
C        -2.33068174922501       0.82796502430492       1.18682680221497
C        -2.51885361511130      -0.51217033930490      -0.92729268075907
C        -3.21467235067871       0.48772306897106      -0.00941863344499
C         0.92265520062249      -2.00725180663072      -0.18228363183275
C         2.11204525638401       1.30538993035789       0.28720794778531
C         1.24271900474554      -3.20658966652380       0.70736565301908
C         3.24688109753337       2.07421964681319      -0.38480869308088
H        -0.33765861846252       1.45139642960486       1.66692930066150
H        -1.03548734273311       2.26849989875311       0.24055265646260
H        -1.29389815793497       0.93287233329618      -1.93121243458381
H        -0.66432048901090      -0.71281636996224      -2.03298787977400
H         0.70311993589766      -0.66907417080818       1.51521002956118
H        -0.78315607065385      -1.43419718981589       0.99258741277431
H         1.43864927960140       0.35126648098627      -1.54194836880592
H         0.70644788752650       1.92566874393165      -1.23587779621995
H        -2.26889445230602      -0.03943957485367       1.87637489807786
H        -2.80687976866430       1.65473473226076       1.75756380865056
H        -3.13379213942643      -0.64250678700943      -1.84408399119862
H        -2.45366520377832      -1.50819619827981      -0.44283798409269
H        -4.17536717277257       0.05916587841452       0.34818577268190
H        -3.44200598801283       1.41663765030291      -0.57761710065685
H         0.33562741316806      -2.38245604501121      -1.04424759603560
H         1.88471258736786      -1.60091721811000      -0.55364453108151
H         1.72691513123707       1.93585471169492       1.11263968392261
H         2.54229331437582       0.37801230137233       0.71824386225734
H         1.80868047899843      -3.96267315852055       0.12312414308645
H         0.30546419866279      -3.67483714495575       1.07680981114778
H         1.86231433419827      -2.89144864125315       1.57376484211575
H         4.02693842176669       2.31804756282480       0.36679827365684
H         2.86717731372639       3.02399087579780      -0.81787793366708
H         3.70448420135640       1.46095546096179      -1.18992372586005
S         7.42804286099844      -0.27127750524789       2.23614975750943
O         7.58091469051057      -1.77300741309425       1.95372038421642
O         8.73355576783900       0.08276059294399       2.96330591354626
O         6.38006716796911      -0.23186115340372       3.35801843728481
C         7.04685407979978       0.74920175018894       0.78808590116730
F         5.89155875118218       0.28379168592217       0.19215733346841
F         8.09033477804722       0.67770446891276      -0.11396872856911
F         6.86773832593730       2.06091750193418       1.18248092663025
