43
C13H24F3NO2 optimized with ADF in AMS.
N         0.65758020391578      -0.03711603588877      -0.18101093378940
C         0.50653009469011       0.51125105708087      -1.60236856785720
C        -0.36513288350629      -1.13265071838425       0.03599360729334
C         2.05493322278526      -0.62226492495024      -0.10390816765779
C         0.46501649718104       1.05626423992340       0.85131240831729
C        -0.89897107917315       0.96315845426463      -1.92981234667353
C        -1.79019942769817      -0.70173057620193      -0.28201475060137
C        -1.90681795649184      -0.16189489752169      -1.70806771796594
C         2.47183913411145      -1.20065268764784       1.23540722755294
C         1.53660768161354       2.12948353108711       0.84101178046481
C         3.92327293807089      -1.68487979321376       1.14357192819705
C         4.43070577709572      -2.27379177601229       2.45587235592048
H         0.81809463125520      -0.29971812189490      -2.27567568125788
H         1.24251698807979       1.30559152330084      -1.75218111045998
H        -0.26460638183905      -1.47329564307949       1.07595765180831
H        -0.06063278690048      -1.95238537483651      -0.63438832560246
H         2.73650576683550       0.17570586545028      -0.42741030802895
H         2.09248537329012      -1.39004831050396      -0.89121781269260
H        -0.51889997171425       1.49597522142663       0.65068679259725
H         0.41348929232958       0.55324658776593       1.82858240448738
H        -0.85166910399560       1.27924905390622      -2.98488280612113
H        -1.18081179426863       1.85734964382971      -1.34622461548236
H        -2.13935512468883       0.05010190243688       0.44698498106755
H        -2.43118373115015      -1.58797541321970      -0.13845980208779
H        -2.93457469938448       0.18322994436370      -1.90170444252554
H        -1.70055237735554      -0.97750045287922      -2.42503517923181
H         1.82743889889439      -2.04882611717221       1.52433877537740
H         2.39857202191913      -0.44601780829695       2.03733996733819
H         1.23435674030141       2.91789978229230       1.54680780265209
H         2.51471741928698       1.74996584233502       1.16550198989677
H         1.65567254529426       2.59413612539154      -0.14702147111568
H         4.56485804185779      -0.84021405067737       0.83704208338267
H         4.00267977327000      -2.43676356340665       0.33877980411847
H         3.82316585719447      -3.13845042516431       2.76691756295354
H         4.39657359987129      -1.52759093155119       3.26588777492615
H         5.47211641154511      -2.61304614641078       2.35639884243816
C         2.67462321610950       1.59845883367844      -4.32018553996227
O         1.47268574956013       1.41705352409848      -3.98557611196964
O         3.21637977675781       2.16762579253836      -5.27627233951149
C         3.68903390618635       0.97368083729265      -3.26837469329943
F         3.41563798551427      -0.35849387311277      -2.97767633401544
F         3.60584183000353       1.63101403260962      -2.02810561622004
F         4.99725292504608       1.01791374005418      -3.61553054596014
