35
C9H20BF4N optimized with ADF in AMS.
N         0.02007989123261       0.20208949596185       0.27812676184513
C        -0.98038559859415       1.09316769478993      -0.43269251720078
C        -0.39560152184130      -1.25743656112424       0.10520043655066
C         1.36928246482184       0.42631046961928      -0.38343727057199
C        -2.41598724924345       0.86074881472132       0.01245612008613
C        -1.82397665393274      -1.51381248375394       0.54670356971387
C        -2.81707931595757      -0.60389341201130      -0.17037607542719
C         0.10750289081194       0.56691602790948       1.73198874302974
C         2.52351514695773      -0.38671882480744       0.17638778408694
C         3.80362462443359      -0.06852147942241      -0.59425255175964
H        -0.87534031197915       0.86385235471071      -1.50624516203408
H        -0.65487217031643       2.13136158279208      -0.26212208020071
H         0.29859614566651      -1.86592908920492       0.69785707251511
H        -0.26305238856963      -1.46702347889105      -0.97045998388134
H         1.57112356680356       1.50722112713542      -0.29083634086458
H         1.21838533826040       0.19834588691849      -1.45188817567034
H        -3.05423433613335       1.52938432132992      -0.58958199313597
H        -2.54666037313026       1.16740405626152       1.06379470141660
H        -1.88748997987422      -1.41986537749375       1.64286707439181
H        -2.02184486278857      -2.57783315342998       0.34319231739448
H        -3.83709795208058      -0.76799612974760       0.21093039719192
H        -2.83335917369533      -0.84169997342505      -1.25133971992795
H         0.79127194363690      -0.13384996330993       2.22639694104010
H         0.44554674710242       1.61043517910447       1.79831677105709
H        -0.87376826617452       0.44412733246041       2.19655486365793
H         2.66864107728172      -0.17113547284412       1.24447598698045
H         2.30544960288059      -1.46269549226952       0.11284305904981
H         3.70464455503520      -0.31233731536104      -1.66390878937394
H         4.07347930523454       0.99606166573924      -0.50843255481544
H         4.63760190532021      -0.65944111528158      -0.19134194831312
B         0.38809821766696      -2.76358336998416       3.14697802559406
F         0.80777437060595      -3.50054309886356       4.25147166944525
F        -0.16374330053813      -3.59210243479108       2.12717246366310
F         1.51666763515794      -2.05269574572551       2.56020869778884
F        -0.58497874086122      -1.77667608401197       3.51904889227805
