32
C8H16F3NO3S optimized with ADF in AMS.
N         0.43919284280020       0.33909836247476       0.11218054851351
C         0.08910441362925      -0.74200724974251      -0.89966385870744
C        -0.82773908492224       0.43369882394709       0.93543571439811
C        -1.36231671052752      -0.46046952891370      -1.27908652490293
C        -1.96875502146239       0.31206065277023      -0.07648284607039
C         1.61538478991885      -0.05792957973443       0.97508049016060
C         0.70948294380772       1.65044285562534      -0.56844002335183
C         2.89667967244570      -0.31358641111283       0.20828459421864
H         0.19628169068006      -1.69398063211791      -0.35590280103921
H         0.80228359394351      -0.68208272964011      -1.73552440807042
H        -0.81396547916625       1.36599987682421       1.51644132435726
H        -0.81019661577191      -0.42400486801051       1.62512495790447
H        -1.88914043016194      -1.40594255691588      -1.47101669134593
H        -1.38866885502379       0.13366319197999      -2.20402765592354
H        -2.33316878609936       1.30214623673311      -0.38642856237634
H        -2.81661298824541      -0.21842578699526       0.38088862772736
H         1.74082613972951       0.75417185681336       1.70911123337287
H         1.29386814758628      -0.96311185867365       1.51385806429999
H         1.57262872927891       1.52218108855784      -1.23116492235916
H        -0.14877852759576       1.91669959076675      -1.19397581256931
H         0.88740353406160       2.40351480427175       0.21089441996265
H         3.66360856565444      -0.61670905230111       0.93692338567757
H         2.78367712564897      -1.11448287169117      -0.53391975349800
H         3.25858615593336       0.57351420854938      -0.32596327536571
S         1.62692289314934       0.74107544655092      -3.97375974249074
O         0.23029212505218       1.09605467099090      -3.63853515122915
O         1.84983015301347       0.07185513498536      -5.25219072950816
O         2.38478775083833       0.19365736038409      -2.81422453428857
C         2.43657728563567       2.42233553987721      -4.19539598490957
F         2.31200780054006       3.18517843936384      -3.05671339999710
F         1.86675711288588       3.11743750407612      -5.21082341672754
F         3.76392094324329       2.30425447150681      -4.45488447006199
