44
C12H24F3NO3S optimized with ForceField in AMS.
N         2.00977972581071       0.44651987871759       0.10005614243943
C         2.25787538409883      -0.85275937218005       0.78444364401577
C         3.12289828009403       0.60232144363347      -0.88544288565370
C         0.70342169294987       0.44258997353228      -0.62793064716956
C         3.68552996529956      -1.26684583435589       0.48925111687492
C         3.95591290129574      -0.66877033567287      -0.86513469125090
C         2.06044923765951       1.56353864829124       1.07905621067595
C        -0.54035220338266       0.24137104445677       0.26987841752843
C        -1.80189521582837       0.08797922102717      -0.58945519081196
C        -3.04820691426947      -0.10605184891273       0.28108663293296
C        -4.30706753986538      -0.22626819294615      -0.58524679077518
C        -5.55226832197501      -0.40682106521985       0.27681591782602
H         1.59813221120487      -1.65920902442003       0.38940961498395
H         2.08910672570242      -0.80607832886293       1.88484892500580
H         3.79524610286279       1.45732746030456      -0.63878713653133
H         2.76835740683388       0.79343560709559      -1.92492012419733
H         0.71232501339745      -0.36352946770018      -1.39847523476860
H         0.57627815445824       1.40367414199314      -1.17782574729930
H         3.80149919062296      -2.37293912041067       0.47977432810782
H         4.37283780686531      -0.82383961948902       1.24341076731818
H         5.03809508597662      -0.45984413688639      -1.01187706145926
H         3.60043634726018      -1.36347397534925      -1.65883947762205
H         1.32937412748053       1.42181911291693       1.90288505883166
H         3.06430693414812       1.63002072550796       1.55631233142488
H         1.84740378024387       2.53608618894249       0.58166330750457
H        -0.42664119785634      -0.66323707233021       0.90322271168491
H        -0.67598423328076       1.12162319964899       0.93258557908808
H        -1.68635139672686      -0.79046276589896      -1.26226187550314
H        -1.92912251323911       0.99802826435626      -1.21660907672053
H        -3.15650218753089       0.76185138815358       0.96856030809944
H        -2.93140036446486      -1.02885373099034       0.89139929927771
H        -4.42670958860217       0.69169724172971      -1.20152928802944
H        -4.21141395049975      -1.09829490232288      -1.26872171565090
H        -5.66869080092013       0.45564706223946       0.96611594795363
H        -6.45057767968973      -0.46745589261594      -0.37317677266103
H        -5.47832092245140      -1.34253197151657       0.87075615611027
S        -7.88301543842939       1.85642681159970       3.47023761130956
O        -7.73765599423472       3.37192684862415       3.67291040312206
O        -7.88038039533793       1.70590976301061       1.94197990869758
O        -9.34911004777737       1.59311135730010       3.84454696995954
C        -6.66838813197648       0.84082816061608       4.35307132136492
F        -6.78734075738992       1.06078726587342       5.71192615816186
F        -5.39494966677511       1.18250988055108       3.94045312842283
F        -6.89880664616172      -0.49368538344144       4.08026795118150
