38
C12H22N2O2 optimized with DFTB in AMS.
N         1.12843006268981      -1.17659888288826       0.93028405441119
N        -0.27095169308742      -0.68542328779329      -0.63361299230974
C         1.75354372354430      -1.32266419300553       2.24162066295726
C         3.05739727119456      -0.52002091095726       2.35923750023647
C        -1.40817278389962      -0.10614409172697      -1.33797195660629
C        -0.04133257732135      -0.58311686574832       0.68051022222700
C         2.86610429764225       0.89750507514048       2.90894618034336
C         1.67020510544224      -1.62312158556141      -0.24259970251837
C         0.78995452698420      -1.30398944432645      -1.23302115745166
C        -1.01866648772516       1.20178246650695      -2.03593007581266
C         2.12895253126404       1.81503400084887       1.93651745305373
C        -0.52332568269930       2.25558594422096      -1.05175650368921
H         1.02316677273203      -1.01645324177114       2.99675112963988
H         1.96337103043927      -2.38882572040579       2.37509568194968
H         3.53577178308153      -0.46508163978714       1.37784201625512
H         3.72065575656526      -1.06918297285471       3.03476659883551
H        -2.20417009852208       0.06209061757154      -0.60579163276174
H        -1.75228633921638      -0.83786065258275      -2.07454620266151
H        -0.70446016244297      -0.14944088133119       1.40752805685733
H         2.33324951589817       0.85758076815974       3.86651033265405
H         3.86070391943566       1.31238386111045       3.10087556525045
H         2.62932195287018      -2.10303773084994      -0.28369548844852
H         0.81974142477780      -1.49667977506130      -2.28828987592376
H        -0.22809247029515       0.99833011642062      -2.76216824854942
H        -1.90321043402890       1.56301006852277      -2.56897996323544
H         1.08120739742671       1.52547246230780       1.84670218113901
H         2.59219477224175       1.75954700051202       0.95167038210499
H         2.17097123118150       2.84587929228560       2.28921484778374
H         0.42421882504423       1.93621078515118      -0.62018440807050
H        -1.24649996078874       2.41924629222127      -0.25035921122780
H        -0.35916243467350       3.19624924277318      -1.57592369494535
C         3.85595087710155       1.98016418265325      -2.16678405741794
C         2.96132314103159       0.82447996293554      -1.64439319440445
O         3.38052117644738       0.21620341396379      -0.63810903816897
O         1.90488518306843       0.61000390189631      -2.27431121409403
H         4.22751176552981       2.56408087332161      -1.32595761053572
H         4.70626033001160       1.54652235718440      -2.69205302311284
H         3.29612986405477       2.61772820624310      -2.84826083765281
