29
C9H13F3N2O2 optimized with ForceField in AMS.
N         0.05080360043034      -0.63518197143090      -0.44586993853491
N        -2.01403515726735       0.10799335302513      -0.09371043203327
C         1.42177486654777      -0.72736022310141      -0.94463361292829
C         2.43201724037611      -0.37914192663123       0.15488845246136
C        -0.86423131102466       0.29982790860010      -0.76840534857822
C        -0.54213291833358      -1.44598676530015       0.45417248756300
C        -1.82389172737684      -0.98337072068566       0.67309628930609
C         2.27402464234236       1.06225658243338       0.63820910671455
C        -3.21225285790529       0.93533330082663      -0.14452863151969
H         1.56249114520775      -0.03832457953379      -1.80671156177696
H         1.61084306095596      -1.76066916551571      -1.30742254573451
H         2.31103686158725      -1.07408334374421       1.01343323304562
H         3.45902834901756      -0.51112260378497      -0.24814480929059
H        -0.68891117010612       1.11385143946873      -1.46121667448860
H        -0.07575024015908      -2.30250734564770       0.92337034643404
H        -2.55640612039631      -1.40421551915374       1.34965001472753
H         1.30182261155659       1.19225112187111       1.15899137973744
H         2.32764720155436       1.76660356847774      -0.21894605278103
H         3.08831581536387       1.31004483384950       1.35013290777844
H        -3.07448198049680       1.77744399730677      -0.85599072197539
H        -4.07615451147884       0.32195143372417      -0.47536556076399
H        -3.42142767648777       1.34951809900080       0.86412710165610
C         2.87835380253053      -1.67803981763977       4.26547361331980
O         2.00366631728191      -0.92668305602559       3.86346846817187
O         2.60207030287807      -2.54462111407532       5.07939876187759
C         4.28613564586446      -1.54457097954247       3.76580566759243
F         5.13984614471476      -1.34753546019836       4.83543670088124
F         4.39716073436625      -0.47122161955915       2.90012481931296
F         4.65006527745673      -2.70011816041391       3.09969270382540
