28
C8H12F6NP optimized with ADF in AMS.
N        -0.16074180080229      -0.33899426792049      -0.57711827381430
C         1.25752039626766      -0.02781520271273      -0.90341608848095
C         2.10877938043945       0.04984708102560       0.36177590231871
C         3.59215852578632       0.08888726441284       0.01060740893364
C        -0.87178758346376       0.54910776633187       0.15683297933184
C        -0.68029842253333      -1.53613979875326      -0.91058382979372
C        -2.14965131717956       0.24941451190209       0.57488206987351
C        -1.96560618744624      -1.87769463891238      -0.52017726549546
C        -2.70778121967094      -0.98545670473420       0.23648662462134
H         1.61104985752121      -0.84390298915548      -1.54515390134718
H         1.26160235916898       0.91353974285694      -1.47600687734395
H         1.89055008352319      -0.83940137584748       0.97210771716866
H         1.82937359239612       0.94252637869398       0.94842389136148
H         3.88206197325846      -0.83578079205625      -0.51069691029192
H         4.19336577728743       0.15355190232685       0.92835887423374
H         3.84563835559213       0.95149641693239      -0.62638206596689
H        -0.36920408942573       1.48262537217829       0.39765699051390
H        -0.02463125363911      -2.22372502284192      -1.43898420938322
H        -2.69595799590415       0.97403829165803       1.17819432801537
H        -2.33294462670509      -2.87119548309829      -0.77360286310134
H        -3.70757933699914      -1.25157114964957       0.58401612759486
P         1.19175608133674      -3.86067339969476       0.87473646740766
F         0.33537191722853      -2.49194894303638       1.35997814207020
F         1.79045697982976      -2.96589839006926      -0.43496323341517
F         2.46832738063632      -3.34537884947612       1.77429284571347
F         2.02345763513199      -5.16474417525086       0.35181053925236
F         0.56456507495163      -4.69261324596581       2.13268364414254
F        -0.11178872958661      -4.28142167834365      -0.08319236191916
