46
C14H12F18NP optimized with DFTB in AMS.
N        -0.19732184515559       0.01808346644739       1.00764680443726
C         0.84889810588814       0.14104427792504      -0.01551344403607
C         2.21699841892246      -0.20219405503414       0.58205658889917
C         3.30109179379876      -0.14463987315831      -0.48839794049075
C        -0.57419243518774       1.09936987747606       1.70770258195509
C        -0.71393101504584      -1.19392096824952       1.27208958867421
C        -1.54864227447001       0.99931930152554       2.67766985604865
C        -1.68151993821403      -1.34673614434496       2.24040255189829
C        -2.11320442692456      -0.23743245669046       2.95705757772296
H         0.60060529143863      -0.54175123133371      -0.83277123049570
H         0.83479544052175       1.16625800286566      -0.39343153543324
H         2.17253877338213      -1.20322581346527       1.01672926309653
H         2.44452309497752       0.50334661637681       1.38360344766783
H         3.10310241181861      -0.86871693449330      -1.27976680367289
H         4.26367083520133      -0.37792103548407      -0.03549540117072
H         3.35543745800698       0.85127159828371      -0.92959903351126
H        -0.07784571711504       2.03463906012702       1.48037573142483
H        -0.33003518692962      -2.02838641403840       0.69842737517713
H        -1.82818508159518       1.88056401910938       3.23951934161764
H        -2.06852401965986      -2.33511101245085       2.45085677522597
H        -2.85003568138397      -0.33989941370413       3.74344990365574
P         1.35907353188928      -0.40623351035618       4.97354823801901
F         1.51355767476261       0.21476143540634       3.39402128179819
F        -0.24252285514700      -0.86568357875252       4.62730816783148
F         2.94129917625283       0.01944933154175       5.29353062289884
C         1.92234987510083      -2.08292243739659       4.10315804499512
C         0.70841847184075       1.43644031152995       5.44482271156864
C         1.15829905453751      -1.03742796485107       6.85855720903736
C         3.39702715606858      -2.24431447452165       3.64694648967587
C        -0.60382367684539       1.68480756463832       6.25070330382941
C         1.85981843946940      -2.27491208985590       7.49063380934151
F         1.19378212771991      -2.22900263505232       2.96127781382536
F         1.62118618553589      -3.14186918671646       4.87088735418215
F         0.44725647759772       2.10004461944321       4.28397111010516
F         1.67480614575233       2.12830949993516       6.06014781475467
F        -0.15495114144628      -1.17761233850592       7.12554292625399
F         1.59683606378042       0.01982802028296       7.57475372912533
F         3.51656157603490      -3.33779813983959       2.88462383356417
F         4.23541746405171      -2.36021458475377       4.66320530801734
F         3.78131325679000      -1.20418176865388       2.90174607691584
F        -0.89992110448551       2.98859653420286       6.18619445112340
F        -1.63376523677828       1.03163310819698       5.69052032453363
F        -0.54468369039671       1.35306053997720       7.52691602817329
F         1.13643303383889      -3.37763536866442       7.32482782304445
F         2.01860163443015      -2.09057567958448       8.80033569465136
F         3.06470835297064      -2.47154043373953       6.96009822794383
