59
C17H34F3NO3S optimized with ADF in AMS.
N         0.15186741453987       1.63255923535895      -0.55264792454234
C        -0.43255234576950       2.48156113607737      -1.66673148469978
C         0.94528756126030       2.66260866614991       0.24167883958097
C        -0.92594999127112       1.04570946639395       0.33054116939254
C         1.06505691562547       0.57951126749259      -1.13904299977932
C        -0.86048811191304       3.77938746918880      -0.99682111498869
C         0.12169523675176       3.95301171602285       0.18862860055305
C        -1.79075322610484      -0.02295139578497      -0.31675463628454
C         1.77544351323783      -0.28145024515830      -0.11009994329583
C        -2.90024794714002      -0.47403915358091       0.63803655910626
C         2.92633294342369      -1.03230037285011      -0.78658267159141
C        -3.77993506783743      -1.57121739734492       0.03901406131408
C         3.72953358110472      -1.88533014026862       0.19093747605717
C        -4.89867416015420      -2.02367351342273       0.97711303404397
C         4.93361405206806      -2.55855565298462      -0.46642554413288
C        -5.77540930250106      -3.11576575844550       0.36833208754958
C         5.74124176263424      -3.40820955102246       0.51116551387153
H         0.40474294803119       2.68563016964569      -2.34929104233993
H        -1.22492533408865       1.92157218843759      -2.17700087902210
H         1.11416774075952       2.27327984994128       1.25273152498043
H         1.90120375619380       2.77708146595235      -0.29010202217599
H        -0.40903075639343       0.63585979169691       1.21141724404599
H        -1.54280311413243       1.89163050411327       0.66979725505860
H         0.45957365595499      -0.01964126602603      -1.83553035449310
H         1.81816347587344       1.14415964179338      -1.71097253811165
H        -0.77293473842758       4.60398630993105      -1.71751481079789
H        -1.90519657219417       3.73920363256589      -0.65181828897975
H        -0.41717171175488       4.13438848051984       1.13050836384135
H         0.80459986810999       4.79485209419252       0.01138280924824
H        -2.25082835425586       0.35667398606013      -1.24473351716504
H        -1.17578223978646      -0.89597566464038      -0.59120881673487
H         2.20609725280546       0.35856564215409       0.67935916851947
H         1.08779104368785      -0.99610351783476       0.37728484459416
H        -2.45077120561068      -0.84030512614084       1.57978694809169
H        -3.53061504189014       0.39373871717769       0.90770163203468
H         3.58900383230435      -0.28749434666821      -1.26056830882469
H         2.52888542348149      -1.66942596450482      -1.59834630951216
H        -4.22261561007871      -1.20882474780794      -0.90779146887840
H        -3.15052580045143      -2.44174241348946      -0.22507554871222
H         4.08453864920686      -1.24584563833185       1.02148747731472
H         3.07719045046983      -2.65609090618588       0.64446671158547
H        -5.52312978158108      -1.15142362432047       1.24326893505344
H        -4.45472608721757      -2.38774966199489       1.92164033900310
H         4.58511906956119      -3.18505547611834      -1.30760716254966
H         5.57950952134314      -1.77875188121153      -0.90786337660849
H        -6.25377467252065      -2.76548392725380      -0.56042564923931
H        -6.57281761090629      -3.42604706614815       1.06009376894512
H        -5.17908031377845      -4.00856115149862       0.12050500646478
H         5.12037094905745      -4.21000375837903       0.94309297214745
H         6.60614052226708      -3.87913791602650       0.02014451353808
H         6.12077685116052      -2.79376889238513       1.34363248913485
S         3.33946779200226       3.43245938501201      -2.70554573940968
O         3.57462393318939       2.24330388353549      -1.84646986168319
O         4.49398586927751       4.28954442401444      -2.95336961876713
O         2.05785965121252       4.11558300622418      -2.40005906990505
C         2.97849129592930       2.65657036003324      -4.37889822234908
F         1.92729592712635       1.76892442542345      -4.28604328571877
F         4.04363021709357       1.96757911401009      -4.85808822104498
F         2.63056384761467       3.59157624731077      -5.29842077843284
