43
C13H24F3NO2 optimized with ForceField in AMS.
N        -1.37716158810963       0.16591022325569      -0.07355109269188
C        -1.65745534038354      -1.02482715519256      -0.93364077069305
C        -2.47161481729033       0.17654081889200       0.94472627395924
C        -0.05623101776240       0.00510726092574       0.61755720666367
C        -3.01968189027264      -1.57934738800221      -0.55799914382503
C        -3.20552048260434      -1.14804037836836       0.86975288092943
C        -1.43642989182170       1.41172494761577      -0.90467260902235
C         1.17240406588762       0.01881208547020      -0.32512465536948
C        -1.14415265743441       2.71033197293314      -0.12965965093663
C         2.44892764482489      -0.34336123031064       0.44455758489371
C         3.67700760696529      -0.33453369866874      -0.47189758089840
C         4.93993403531788      -0.69946833463799       0.30478126915214
H        -1.63255822841266      -0.79548733779891      -2.02365257194339
H        -0.92122860265017      -1.84537475902418      -0.77235855876311
H        -2.10616909456306       0.34940101237138       1.98283411586845
H        -3.22568813608107       0.97230492608796       0.74384869461511
H         0.08512880074081       0.80490188895858       1.37554096472772
H        -0.05336118539606      -0.95023577368768       1.19265568493724
H        -3.80548549194455      -1.12080577467562      -1.19820371968278
H        -3.05845944655569      -2.68649963521660      -0.65695540054433
H        -2.72964779353508      -1.88398043828873       1.55481051397350
H        -4.28207035305614      -1.03972259755888       1.12690231650323
H        -2.44596561157370       1.51022845708085      -1.36651778373171
H        -0.72761242393702       1.35160892570785      -1.75942642067886
H         1.30648221407159       1.03157300009884      -0.75941008568022
H         1.03674427406490      -0.70142400729043      -1.15867926643427
H        -1.77533649303937       2.79891958958196       0.77791704310181
H        -0.07639274261580       2.77123253430346       0.16291573016466
H        -1.35998297515959       3.58060542909424      -0.78418632114624
H         2.33412659319911      -1.35472542675985       0.89354420758255
H         2.60223798572675       0.39347924599913       1.26278534596482
H         3.53658062289282      -1.06665910828858      -1.29690332127386
H         3.80694161354299       0.67655239255705      -0.91611704842358
H         5.81809823931879      -0.67236653702770      -0.37399818593835
H         5.10719047733500       0.02440388776627       1.13093605867647
H         4.84920476248769      -1.72264599981176       0.72811120307572
C         1.57512721092241       1.53608550537514       4.63812657140209
O         1.67754910605365       0.68199684999577       3.77250508088229
O         2.23950851980399       1.44289413419028       5.65792817841384
C         0.63883279038627       2.69421812858575       4.45986232510465
F        -0.30015321071488       2.68756313706980       5.47456924694154
F        -0.01395746749543       2.61255574886197       3.24273339655797
F         1.35297501996682       3.87712176213058       4.50800454038567
