35
C9H20BF4N optimized with ADF in AMS.
N         0.37330931622451       0.05908861914990      -0.14590739646252
C        -0.50117592125895       0.86295270298149      -1.10086348504221
C        -0.48805814927775      -0.98972569621376       0.53682897631362
C        -1.73394118335526       1.45441896622780      -0.44491119182605
C        -1.70981519962185      -0.40255932361744       1.22296320714343
C         1.01038563910424       0.95211364059441       0.91761306312456
C         1.42833025513132      -0.62491568246352      -0.99007293005668
C        -2.57385428683498       0.37616732213646       0.23445300835437
C         2.00993643509493       1.95735404544923       0.39653807775699
C         2.44757663294602      -1.44277685475086      -0.22226298003526
H        -0.77788422643645       0.15298329928403      -1.89870229469055
H         0.14300005944573       1.64009760909887      -1.53301610179847
H         0.16021444097583      -1.51484512819783       1.25059791364266
H        -0.78693332640870      -1.69283095850865      -0.25944415077159
H        -2.30655372697528       1.95664419092247      -1.24259592305560
H        -1.44948039778335       2.23723539258716       0.27576033206650
H        -1.41692185349832       0.25857101664873       2.05405371482818
H        -2.26733558073100      -1.24762273997402       1.66035132700903
H         0.19122720573843       1.46726309258896       1.42819546418997
H         1.46774014251795       0.26559996723316       1.64483771023155
H         0.87688871368091      -1.25752918462327      -1.70217021892677
H         1.92026526990006       0.17365391237566      -1.56339794996862
H        -3.41757894231318       0.84202583804286       0.76542629364256
H        -2.99444666179157      -0.31490115849615      -0.52172741702694
H         2.29626227189131       2.56779532478457       1.26638251129916
H         2.91233672856678       1.50088947607608      -0.03663990778687
H         1.55802268273751       2.66222554034525      -0.31348708335965
H         3.14219157350774      -1.88568352433419      -0.95199463581516
H         3.04091931008820      -0.82926230111444       0.46872634480830
H         1.99057273249837      -2.27049749544916       0.33657028412378
B        -0.42824542789688       3.57648189007809       2.53633264471365
F        -0.94884237699627       4.66661557599234       3.22932930925845
F         0.84272130152465       3.17529379120485       3.04596911111525
F        -0.28325000913983       3.87471737681875       1.13522780782841
F        -1.31996067085487       2.43703796432215       2.63212602357251
