35
C11H16F3NO3S optimized with ADF in AMS.
N         1.56738405908872      -0.17022388954415      -0.43248330450919
C        -0.83541385740612       0.01650707715541       0.21578415515005
C        -2.26383639763564      -0.02862402478899      -0.32102699421213
C         0.16891407049143      -0.09823965115956      -0.92001039605228
C        -3.30544772512509       0.07187044420449       0.79080036113851
C        -4.73373561476389       0.01904242850606       0.25749163425693
C         1.93834819448992      -1.27653048302898       0.24576945157480
C         2.47366629532917       0.76815001349579      -0.78701181600162
C         3.26004597407216      -1.45527364702851       0.62775944314988
C         3.79879160779331       0.63379250860649      -0.42996614627827
C         4.20100784179125      -0.49658093842379       0.28735313286886
H        -0.69419643189800      -0.82047420347607       0.91989420983777
H        -0.66002014662754       0.95274289771734       0.77611575254904
H        -2.40708245959349      -0.97417953701278      -0.87486096784762
H        -2.41796477204693       0.79266037152769      -1.04574777765428
H         0.03136025513302      -1.02448439721753      -1.50305551376913
H         0.10821124934844       0.76463505278191      -1.59819922080282
H        -3.14773202474694       1.01108725013379       1.35340984771136
H        -3.14273803944335      -0.75452767462766       1.50643954979027
H        -4.92294674452434       0.84666801169467      -0.44491806016204
H        -5.46994071968617       0.09296997236866       1.07279219682954
H        -4.91563565495523      -0.92598349528609      -0.27871597732730
H         1.17293839577057      -2.00555442840667       0.49019756010943
H         2.09540498082646       1.60489776875612      -1.36975583361173
H         3.51595735301224      -2.38139856203345       1.14086795951593
H         4.50989451431910       1.40421714694844      -0.72570501179570
H         5.24854447585154      -0.62774383233399       0.56317616570083
S         1.40462360998353      -4.03416027911422      -1.33831212803894
O         1.76245747503395      -5.09422341078681      -2.27332412266381
O         1.49629115685265      -2.64734206614732      -1.87546646526791
O         1.89706500718934      -4.15609907162675       0.04944781178439
C        -0.45543255805786      -4.23109165556696      -1.11012650226386
F        -0.78756695169067      -5.46587070893119      -0.67025894623407
F        -1.14160489540575      -3.99236640248592      -2.25945930333208
F        -0.92099417656979      -3.32263534946944      -0.17633016544281
