47
C13H28BF4N optimized with ForceField in AMS.
N        -1.54367215694693       0.09627144570744      -0.08107704644851
C        -2.55549392704451       0.49405894559481      -1.11446018148147
C        -1.78945515260966      -1.33016476749764       0.31099761030194
C        -0.19782970860000       0.18715704901365      -0.74581242314106
C        -1.61955206481268       0.97229575554160       1.14056044766691
C        -4.01577090521072       0.28242610680259      -0.68053748392184
C        -3.23484549104467      -1.61638628324904       0.76799418278702
C        -4.25208375866989      -1.17036368800652      -0.27891509524433
C         1.02650907295460      -0.12523756943581       0.15116945386338
C        -1.27328072617296       2.45648940627940       0.92291057635319
C         2.32851087101465       0.04110690019466      -0.64571059394283
C         3.55550985769893      -0.29848108369742       0.20969506974671
C         4.84908270088441      -0.10078985284432      -0.58988523633544
C         6.07554236232690      -0.46085977689407       0.24404865490662
H        -2.40813687903457      -0.10472948877440      -2.04391722070765
H        -2.42573684325470       1.55102676309159      -1.42799434292492
H        -1.12083079073665      -1.63465726685842       1.14518707877813
H        -1.56760909053032      -2.01268977469563      -0.54135830761604
H        -0.05504323750436       1.19575337709257      -1.19098486965961
H        -0.15600466417889      -0.51256414033887      -1.61333545174114
H        -2.63055836694196       0.94736333176416       1.59132890103218
H        -0.95462974986406       0.58351120265334       1.94168122277440
H        -4.68157212457985       0.52856521404106      -1.53644080887152
H        -4.29370945328858       0.96693867807125       0.14687056598016
H        -3.44729735856212      -1.12523469864422       1.74031367564205
H        -3.34777589834911      -2.71048721509076       0.93164436153669
H        -5.27884105569528      -1.27752408712626       0.13279654068226
H        -4.17196682833387      -1.82292158066278      -1.17659838616485
H         1.06858888674816       0.56521602994040       1.01824483038847
H         0.97496343824263      -1.16993831840091       0.52232122383959
H        -0.22510254460836       2.59145463517649       0.59078899671632
H        -1.96640389251271       2.94177051399006       0.20801875465869
H        -1.37877515002103       2.99140975512412       1.89051493386832
H         2.40829854935057       1.09350943146230      -0.99960630931600
H         2.30651339259488      -0.62945729900788      -1.53371777958433
H         3.48775275035690      -1.35712244612872       0.54657046829773
H         3.57430953021706       0.35857780304544       1.10779509905304
H         4.83098766975822      -0.74320421790605      -1.49801292524795
H         4.93133173140016       0.96121959140760      -0.91107522333729
H         6.03278495998334      -1.52794004742734       0.55141755367888
H         6.99434036964701      -0.30179550411836      -0.35898079562625
H         6.12885238123755       0.18118235047718       1.14950468683990
B         0.19552258538426       3.98801126112032      -3.18281803696993
F         1.47669516080492       4.07361126875269      -3.78981665080514
F        -0.55374474916323       2.95155917295892      -3.80099058379483
F        -0.48622115270699       5.22406612314858      -3.33922620549604
F         0.34656111167349       3.70521987295317      -1.80051092771362
