58
C16H22F18NP optimized with ForceField in AMS.
N        -0.10444069872285       0.03491333853316      -0.06818960060214
C        -1.02109466834717       0.54302023520515      -1.14046072981453
C        -0.61805464436238      -1.28686849642724       0.42002346938781
C         1.23494634794812      -0.18182123907475      -0.71753874173534
C        -2.49581456467478       0.64008435452669      -0.71373916967110
C        -2.09210674401157      -1.26061338809540       0.87264732522186
C        -0.01023874597292       0.99522175960644       1.08641113288538
C        -2.99980483189566      -0.71329323878203      -0.22419257164843
C         2.37711131462143      -0.63054162315539       0.22762754009495
C         0.59334275080856       2.37385250156834       0.76049985758339
C         3.67147356057707      -0.84934997493535      -0.55193964144139
H        -0.98630583340722      -0.13501644149877      -2.02541538057574
H        -0.69327310416804       1.53346338537955      -1.51966263807948
H        -0.02226450075573      -1.65079435079727       1.28448926210485
H        -0.52904307272040      -2.05892292654026      -0.37888654711922
H         1.56329469969870       0.74040815911930      -1.24686278037700
H         1.14603672326369      -0.95163236914131      -1.51924530774972
H        -3.10435610986609       0.95169591996000      -1.59017911188938
H        -2.63965573567833       1.41510934398309       0.06693513874386
H        -2.21212754924283      -0.66428360798095       1.80096907975314
H        -2.41204390209376      -2.29706836969725       1.11556484210160
H        -1.00428780788694       1.18678742343397       1.53397083155923
H         0.58017801616617       0.54944665901147       1.91596785716534
H        -4.03417784145316      -0.60543059371617       0.16800147622945
H        -3.02755999291293      -1.42995668292487      -1.07485509331169
H         2.58094700223417       0.13893724643632       0.99945629036874
H         2.12243408654200      -1.58408545677673       0.73217542235294
H         0.65104668891234       2.96789065924237       1.69707622452705
H         1.62347780884997       2.29618919655754       0.36304008239052
H        -0.04404554462750       2.94244159887555       0.05492622222657
H         4.47629392407340      -1.16701279291331       0.14429140214424
H         3.53321813696920      -1.64240093093162      -1.31773902103588
H         3.98655347024350       0.09246127603101      -1.05003519641412
P         6.76707802115799       4.93138138649243       1.89929103987727
F         7.22443334827128       4.20424801079221       0.40698356952438
F         6.91386988145390       6.64800213608847       1.84986986577155
F         6.26278792649167       3.29863050307738       2.09919879734261
C         5.27988551472873       5.44396996680867       0.76437638133412
C         8.70146886808559       4.86708160322113       1.90050837125064
C         6.32510371424063       4.87696398677860       3.78057154304020
C         4.46227762782348       4.30803539037072       0.09061059960575
C         9.42913537322368       5.54941950896507       3.07764015118889
C         4.82789302587824       4.85012695550389       4.14835302132741
F         5.75533985086659       6.24293676032179      -0.26864444239055
F         4.39388685422289       6.21707673113657       1.48768717967503
F         9.18787680958122       5.48185654456816       0.75032171900436
F         9.10686948976404       3.53964218175377       1.88769557365912
F         6.84298638294218       6.00586257808098       4.38956165010174
F         6.92860174727808       3.77714152936827       4.37524553988658
F         3.34844481244239       4.86299496402728      -0.51484609901071
F         4.02064829448128       3.36673267179285       0.99496695668538
F         5.19701633863452       3.67192176474738      -0.89398418514256
F        10.78943955527750       5.53910359505458       2.82201555115598
F         9.03848577690721       6.86729251626220       3.22140195884446
F         9.22846744144495       4.86852529599765       4.26154236598000
F         4.25267203183118       6.09174317057023       3.95255703191818
F         4.70160771047660       4.54337259808180       5.49190495157868
F         4.13370308928607       3.89883716605667       3.43456480721568
