43
C11H24F6NP optimized with DFTB in AMS.
N         2.32263110980221       0.25424760753686      -0.03122820164108
C         2.42852924971308      -1.11023557399946       0.56839002159726
C         3.49232615244716       0.32003970791339      -0.97065526493061
C         1.04021015399955       0.44596609693708      -0.78825986108710
C         3.92558198318460      -1.35825700425670       0.74548427401382
C         4.61709940521339      -0.43186793297567      -0.26794559210916
C         2.47176728814904       1.30235384205773       1.01345248986200
C        -0.21692008457300       0.24662089442488       0.05057221086911
C        -1.44544357072057       0.48254915335097      -0.83784596276048
C        -2.74253250364864       0.32003026425065      -0.04081970148465
C        -3.96793206935677       0.56737525845644      -0.92650488111583
C        -5.26618576753798       0.40573949235416      -0.13793831406178
H         1.99544874146090      -1.81708805472127      -0.14284302172568
H         1.87071113467836      -1.14864618110532       1.50400170143525
H         3.72564152388054       1.36090179101255      -1.18633306827061
H         3.20080585562648      -0.17544598171401      -1.89737815734767
H         1.05455744827118      -0.26063850624937      -1.62099507181074
H         1.06658694478101       1.45726129390145      -1.19442988225840
H         4.15626077594093      -2.40773494022845       0.55602056346482
H         4.23783171635907      -1.12165359039922       1.76471220776177
H         5.29336883119776       0.25872320863147       0.23940024951105
H         5.19827361810622      -0.99945345338812      -0.99614079294696
H         1.69681746029470       1.17814888040450       1.76629074651357
H         3.45036426712145       1.20708915048742       1.47752026461338
H         2.38096796619974       2.27602672951362       0.53633285354157
H        -0.25208024499755      -0.76678091876182       0.46234845927617
H        -0.23866303915264       0.95346648339823       0.88447294315677
H        -1.43294229852535      -0.22876368820804      -1.66992877748935
H        -1.39613981176407       1.49129928018803      -1.25893789548227
H        -2.74681352100235       1.02735509950858       0.79561220991477
H        -2.79000163079395      -0.69165726044249       0.37740651068782
H        -3.91705938529681       1.57918467399883      -1.34136694050129
H        -3.95946959372009      -0.13844574480863      -1.76368349315384
H        -5.30200708877912       1.11552025065162       0.68958472155553
H        -6.12214016407048       0.58688876621206      -0.78796576054460
H        -5.34508429788930      -0.60404738467196       0.26735824308584
P         2.57577333780434       3.22130876658614      -3.01036655571280
F         2.19571654081876       1.58110754371379      -3.10088632747115
F         2.30661305289484       3.12567760881656      -1.33149733409907
F         4.14796580505922       2.78609514987078      -2.71194316949708
F         2.95263379974225       4.79176554597630      -2.84742694432624
F         2.84705533273755       3.25063744682020      -4.60829406068439
F         0.99128520884441       3.56941260635622      -3.20790096204763
