39
C9H20F2N2O4S2 optimized with ForceField in AMS.
N         0.26791918837415      -0.11458472148115      -0.18918162519011
C        -0.59956101133212       0.69883298139794      -1.10232415208331
C        -0.49226843607935      -1.33612207044953       0.23280467319123
C        -1.96452110056077       1.07627893790867      -0.50015986412859
C        -1.86851948515809      -1.03160961996663       0.85933309913962
C         0.68438084023952       0.66262632678338       1.03030070746616
C         1.45841197515932      -0.54589989296263      -0.99975416793474
C        -2.72390509157568      -0.17534060297004      -0.07034582532127
C         1.54232058032919       1.91306054546492       0.76631720948474
C         2.53574779278894      -1.34378332186823      -0.23983754977843
H        -0.80800530440655       0.12943596104705      -2.03859545628107
H        -0.08614605094309       1.62500965495648      -1.43546055396204
H         0.08061429079226      -1.92399276414521       0.98196439697951
H        -0.66440364887723      -2.00910833310975      -0.63920074040594
H        -2.56198075727272       1.60980725881655      -1.27065593833123
H        -1.84765134884755       1.77388670457194       0.35453392389987
H        -1.75804132135917      -0.53257560738188       1.84390978407535
H        -2.39244949435394      -1.99032540076327       1.05353823886405
H        -0.19362162382051       1.00625407221893       1.61012801710580
H         1.24078501233176       0.00916108285157       1.73698315737526
H         1.13212849900931      -1.18008674069637      -1.85628176577216
H         1.95499111869705       0.33199932970485      -1.46917069995197
H        -3.66035967755746       0.11873436959853       0.45172620795906
H        -3.00364117723608      -0.76734584613710      -0.96987410991833
H         1.79493178390649       2.38076742839544       1.74152372359128
H         2.49912593479141       1.66460755999573       0.26665749253211
H         0.98914520408096       2.67200449447283       0.17881968339979
H         3.33774184089518      -1.62815331350558      -0.95344084603255
H         3.01183131994022      -0.73892586369783       0.55736652203542
H         2.12978304171852      -2.28243151019911       0.18597215636881
N        -6.76287507045776      -3.39979628883832       0.71119745649843
S        -5.63563051137280      -3.95853348858403      -0.33509102322208
S        -6.41418216460020      -3.15204423066507       2.29072515544739
F        -5.38638446806726      -5.59114847900269      -0.06189738187287
F        -5.49032084103818      -1.76393884265869       2.44207837310207
O        -6.11346006905572      -3.75612407301107      -1.74482020828354
O        -4.33885607947795      -3.22897712046330      -0.13191092460633
O        -5.63695715439587      -4.31769697476286       2.83558557190818
O        -7.69052872480820      -2.98689139716445       3.06602274255242
