41
C11H22F3NO3S optimized with DFTB in AMS.
N        -1.13390081912132       0.01988128951870       0.15796243444172
C        -2.26046075339550      -0.69719579671567      -0.55178688842207
C        -1.66890432702905       0.37623694789794       1.53066938743324
C        -3.52372092058611      -0.23295698956867       0.14831008201513
C        -3.08756704127314      -0.18274984882409       1.60728359825246
C        -0.79737905859953       1.27086354522228      -0.60662248640564
C         0.05097729527438      -0.88647555579759       0.29107766280677
C         0.35801122615892       2.08638715610823      -0.03452191854367
C         0.64815211614479      -1.31329359418668      -1.05034893725100
C         0.44038471687409       3.40944276182939      -0.79786468700574
C         1.72010984034753      -2.37749363490435      -0.82051978510288
H        -2.24574339860962      -0.45908737877319      -1.61346902628891
H        -2.11752431319120      -1.77128521295160      -0.41350376047418
H        -1.00791952074356      -0.03448923817199       2.29427066267029
H        -1.67920923378333       1.46277530705991       1.61979661320731
H        -3.81433749559284       0.75904602728328      -0.20238868002459
H        -4.34495017551601      -0.92623955752260      -0.03143932042394
H        -3.08029319080598      -1.18452663793683       2.04572635297480
H        -3.72405810888683       0.46257602914482       2.21341763629248
H        -0.56701650282652       0.97443328599812      -1.62973086346392
H        -1.70943239753577       1.87187893578052      -0.63030362225212
H         0.80189409366565      -0.36709324186651       0.89125444431900
H        -0.28738977821686      -1.76526669300884       0.84727609414442
H         0.20665866910732       2.28787312479621       1.02997988323178
H         1.30324078385940       1.54682428253330      -0.14560236010795
H         1.09798209133103      -0.45475844164232      -1.55405727870002
H        -0.13133439313256      -1.71678543609975      -1.70050170684608
H         0.58028139514774       3.22409452497097      -1.86265605826026
H        -0.47687927198455       3.98256091332281      -0.66447375719771
H         1.27996877065184       3.99749675402405      -0.42897954297018
H         2.51434594394076      -1.99059715429650      -0.18114698546971
H         1.28989772267202      -3.26114727033756      -0.34802389481102
H         2.15369173054866      -2.66999656838905      -1.77590111733831
S        -3.71289492754150       1.53564397440001      -3.03319254221954
O        -4.59475777935463       2.22659772809219      -3.92990990053609
O        -3.99511804790278       0.12811703792408      -2.80982133305309
O        -3.36635307181253       2.25495310994174      -1.81087325026477
C        -2.06764899655697       1.47739261787707      -3.92833251169494
F        -1.27493396996749       2.49023720130762      -3.55830116871825
F        -2.17896880509693       1.49758246159223      -5.24437637707179
F        -1.40792057216100       0.34746946836831      -3.59027243667108
