24
C4H12F6NP optimized with DFTB in AMS.
N        -0.35794456478734       0.19705266011526      -0.27427240691265
C        -1.62537871669962      -0.55325865090174      -0.04378593599706
C         0.42891024928750       0.22490616748857       0.98507175305490
C        -0.65425502158457       1.59544269533545      -0.69568138378519
C         0.42576603209453      -0.48325261491907      -1.34045779362029
H        -1.38287932916234      -1.53190761759756       0.36607150739551
H        -2.24431775657032       0.00729706903000       0.65301080679546
H        -2.14861659165364      -0.66070311950328      -0.98989375822185
H         1.35458856960913       0.77215744452198       0.81582051087659
H        -0.15952091366732       0.72024930419546       1.75513412647877
H         0.65225304765887      -0.79628109315741       1.28863580969029
H         0.28353181896682       2.14055687755699      -0.78704849037978
H        -1.17365115317352       1.57361701053717      -1.65000719656814
H        -1.29153741203364       2.05986436190577       0.05348897674093
H         1.35289854667416       0.06323668659007      -1.50313235507929
H         0.64161015892691      -1.50218706067635      -1.02450235323516
H        -0.17007374059014      -0.49124341221494      -2.25164160617632
P        -3.60917815791993       0.57203417352915      -2.95603361897861
F        -3.84682867015090      -0.89534381049282      -2.22417421907278
F        -3.78996401360816      -0.10054198209935      -4.42140342592219
F        -5.18537654826849       0.92835456432995      -2.84200032473035
F        -3.26026913769395       2.02800128216545      -3.60931068165562
F        -3.34189508500475       1.22866333136202      -1.42388911594582
F        -1.94349339294933       0.19742450669923      -3.00617855145137
