56
C14H28F6N2O4S2 optimized with ADF in AMS.
N         1.00106153435840      -0.61251527790842       0.35154835864849
C         1.10926458870145      -0.69035236038445       1.87629185150923
C        -0.38646287672184      -0.18416414635377      -0.07492068574036
C         1.29767482448628      -1.99075981340075      -0.22047147428352
C         2.01073799730068       0.40918279515984      -0.15477127618975
C         0.04617327981902      -1.51235761173048       2.58468553660899
C        -0.87929325389540       1.13411584732920       0.50138285601224
C         1.28095444973663      -2.10724463829068      -1.73485551959633
C         3.46702246873413      -0.00481363188531      -0.04669792521258
C         0.30186885829578      -1.45330449460301       4.09391038251929
C        -2.30217659746125       1.40878136055514       0.01415938617075
C         1.76986729795211      -3.50761233869336      -2.11609137046094
C         4.37197014771933       1.18577476206930      -0.35987075660660
H         1.10306761796519       0.35010139974249       2.23359417089292
H         2.09773203568655      -1.11132994502684       2.09324712300101
H        -1.06129293192398      -1.00598244179796       0.20697154505472
H        -0.36484021515404      -0.12942454231877      -1.17252967714813
H         0.56597060197195      -2.67316675983447       0.23126411198851
H         2.28104326814855      -2.27663894991489       0.17200420442240
H         1.83488409889151       1.31981716181649       0.43571570408637
H         1.73770292570079       0.62524357644688      -1.19959579733257
H        -0.96566148531477      -1.13201541129661       2.36455469328868
H         0.10590255574122      -2.56432261242647       2.26485240510561
H        -0.87026024725336       1.10325193571161       1.60235752820739
H        -0.22268755743615       1.96233661747465       0.18998636443255
H         0.26867521908253      -1.94708886500172      -2.14156277086167
H         1.94489428689899      -1.35660302380107      -2.19499700466676
H         3.69407359004813      -0.37070886753609       0.96088932593568
H         3.69162840476967      -0.83449625407711      -0.73406223506260
H        -0.47669966045043      -2.01476239327650       4.63051037584070
H         1.27751695456260      -1.90040326214000       4.33401339454235
H         0.28915753006862      -0.41504058269135       4.46311963947169
H        -2.67281224389595       2.36090049097472       0.42016005563037
H        -2.34358617646739       1.47131525718065      -1.08441818465378
H        -2.99199255515831       0.61324165224739       0.33660518527732
H         1.76221139311330      -3.63836379266909      -3.20743712767401
H         2.79394143279875      -3.67551233898815      -1.74963641346538
H         1.12903535814237      -4.28411393442563      -1.67159344889249
H         5.42629669096212       0.88315104575461      -0.28970798075114
H         4.19596746020374       1.57728716491540      -1.37470873060932
H         4.21211676453352       2.00452958302962       0.35876866117923
N         3.39988657719015      -2.83043825726868       3.58799912585467
S         3.48420806830066      -3.66699883302751       2.22094301416200
S         4.66097102788794      -2.21868477504833       4.39707343820254
C         4.45265109078556      -5.27826904504191       2.53856903642684
C         4.94427373048297      -0.50183022664370       3.64501191725444
O         2.12260190211670      -4.13337086921300       1.94797317465772
O         4.21361322597011      -3.01322467339685       1.12482080318414
O         5.92629683663029      -2.90728808245721       4.18839132004918
O         4.18549640763753      -1.88791647778659       5.73086180547324
F         4.02102894819837      -6.20100649287272       1.63848278894507
F         4.21275407464776      -5.74328835728709       3.78240903146105
F         5.77524129077881      -5.11093115154344       2.36903296271371
F         5.75952990667366       0.21610487734004       4.44917591744640
F         3.76664325387376       0.18740664029199       3.52107125053398
F         5.51251348906469      -0.56691695738007       2.41530285441649
