35
C9H18F3NO3S optimized with ADF in AMS.
N         0.65799283003693      -0.03318463632134       0.17460429948418
C         1.55785682811954      -1.02049962200029      -0.55502762200244
C         1.49167186715522       0.34340576820515       1.39072020649457
C         2.25459662629987      -1.82673265023614       0.53994277512564
C         2.20000413564492      -0.94188707961372       1.81101667333512
C        -0.61079091560253      -0.71239884357442       0.64876858665310
C         0.38596798564986       1.16894565665301      -0.70470288109493
C        -1.60108391788255      -1.07084884712399      -0.44129123090591
C        -0.39017312197815       2.26695763164739      -0.00868075253627
H         2.27855388474156      -0.41621679644293      -1.12843333158180
H         0.94557920560568      -1.61096232754024      -1.24794189239043
H         0.82506505385263       0.76660717173711       2.15300984768179
H         2.20838548041479       1.10916634732928       1.05335800520930
H         3.29404178678756      -2.01007299841695       0.23529395216747
H         1.76414799501496      -2.79750714167724       0.70851853948389
H         1.66504963359795      -1.45063108360215       2.62756249083520
H         3.21132773758554      -0.69059646570039       2.15894247183958
H        -0.28226052327672      -1.61071087413208       1.19049667995008
H        -1.06994406656116      -0.03268534344824       1.38030940488993
H         1.37551464077916       1.53271106258681      -1.02058574683206
H        -0.13793661210403       0.79040440477632      -1.59411526066222
H        -2.42421139953568      -1.63939416597840       0.01872615649483
H        -2.03931021886854      -0.18181453860819      -0.91546235324772
H        -1.16153010405804      -1.70820441532449      -1.22102742336861
H        -0.53170811904681       3.08721534678681      -0.72749470415998
H        -1.38673589433361       1.94867278063088       0.33243928807274
H         0.17474092736859       2.67936149944401       0.83900166016895
S         4.17732992545073       1.50465609002256      -0.72343870757033
O         4.61382024278643       0.36269185791678       0.10372662711434
O         3.42884558306630       2.54850179445118       0.01402972714360
O         3.56460750910343       1.12981324853443      -2.01771226600743
C         5.77801684711410       2.35593916844844      -1.20466084917665
F         6.55936353052801       1.53287330614593      -1.95218244989344
F         6.48055561974902       2.71325614934922      -0.09751782664398
F         5.53517334599504       3.47894004307590      -1.93067880337009
