49
C15H31NO2 optimized with DFTB in AMS.
N        -0.29393976745643      -0.32421444888154      -0.19943773230930
C        -1.71335327389132      -0.25833196408392      -0.67705602307757
C         0.25703419005139      -1.68592605905809      -0.52341777726394
C         0.47927676500981       0.70216460111475      -0.99111912686544
C        -0.17670794681076      -0.07048392949819       1.27714063883565
C        -2.59385535898114      -1.35159363880843      -0.08110111864128
C        -0.57378726188034      -2.81730182150699       0.06204035613219
C        -2.02816587670595      -2.73532464895719      -0.39872130757965
C         1.92598043246951       0.90980285768592      -0.54861769725681
C        -0.64955343658960       1.30250084045411       1.72557508815384
C         2.65548167430533       1.73859680385273      -1.61291451738728
C         4.00771136551979       2.26977188539766      -1.12094267062799
C         4.98840117433931       1.16765531614126      -0.67299632858389
C         5.21737033178119       1.18061769486975       0.83775300034107
H        -1.68492417114432      -0.36093298244149      -1.76583726908391
H        -2.10853837559245       0.72961361889639      -0.43293382508539
H         1.29245234255158      -1.73641147524100      -0.14013598971512
H         0.27649716106121      -1.76684344147544      -1.61397092844672
H        -0.07650659922710       1.64191365007172      -0.92600106777090
H         0.45230128500276       0.36704062580931      -2.03225462288775
H        -0.75884615556617      -0.83719794123545       1.78897639000955
H         0.88660573709608      -0.21339614073830       1.54043309057041
H        -3.59090003727055      -1.24469696879217      -0.51730527482908
H        -2.68925638887773      -1.22057286379926       0.99983611009138
H        -0.52255046570765      -2.81148188166963       1.15351381983530
H        -0.12828708421989      -3.75409145588783      -0.28205243929820
H        -2.62513073399207      -3.50078508880581       0.10282108622881
H        -2.08386018645648      -2.91241385287307      -1.47801183400961
H         1.95879209189058       1.42718701751495       0.41211793334424
H         2.42838734580616      -0.05060926403422      -0.42475411840188
H        -0.07815399072229       2.10357784718864       1.26058204145260
H        -1.70987085129775       1.46302790138008       1.52890791506741
H        -0.49163749380406       1.35904132993378       2.80257387434655
H         2.03283592706917       2.59513908177990      -1.89889156136218
H         2.80462815083909       1.12410024431687      -2.50754196543499
H         3.83221632259088       2.96813713374963      -0.29529771305874
H         4.45232195021451       2.84465847324579      -1.93997883420290
H         4.61495750374112       0.18366016794062      -0.97224403993757
H         5.94852050164968       1.31721334876346      -1.17842756777832
H         4.28087048373883       1.02558925360445       1.37260979938447
H         5.90739172964530       0.38280435246861       1.11388557536793
H         5.64591121057663       2.13437500227463       1.15126551646362
C         4.31152450333756      -2.23214396957790       2.37230823801924
C         3.23013019345140      -1.52185756424564       1.52864707057512
O         3.03336171760853      -1.97287016209617       0.37909214361500
O         2.63187400624061      -0.56257061189858       2.06331043017340
H         3.88959852040241      -3.15933589532493       2.76008104778426
H         5.16699123484030      -2.47479294011855       1.74453276328038
H         4.61930794516334      -1.60206201400525       3.20428719782395
