39
C9H16F6N2O4S2 optimized with DFTB in AMS.
N         1.70389443949930       0.40540588938971       0.14902064686005
C         0.48807645028912       1.16486377647496      -0.28262074468964
C         1.66414465175851      -0.98483699604210      -0.41485962866738
C        -0.81009003930021       0.45671299082715       0.09303052963473
C         0.40213816025493      -1.73368253161966      -0.01530209980348
C        -0.84196973571144      -0.96778592450046      -0.46147400868976
C         1.81581588836229       0.38360470883177       1.63455551373660
C         2.91353722950145       1.08565091628343      -0.39811528881046
H         0.55090325485009       1.27740145605654      -1.36867193585117
H         0.54008719634021       2.15360840113963       0.17936666514765
H         2.55585740543838      -1.50504326587402      -0.06176129237802
H         1.71898038638635      -0.88732761533532      -1.50259555744781
H        -1.63470205354091       1.03861090802510      -0.32695977805868
H        -0.93639520594466       0.44054152410004       1.17860049011181
H         0.38300643933405      -1.90122157264925       1.06423386655435
H         0.43302541300186      -2.71138480757486      -0.50212657234313
H        -1.74021197359045      -1.47740721092376      -0.10569711488295
H        -0.88006686512680      -0.93384393458767      -1.55517898465333
H         0.90712181855075      -0.01838418404137       2.07245129719702
H         2.65999655186122      -0.24416344604443       1.90542494001292
H         1.98410286005909       1.39886503649886       1.98775887810191
H         2.81878248392434       1.16621787426801      -1.47896866573266
H         2.99915310103614       2.07329420730671       0.04958893437087
H         3.78695162187708       0.48957140121373      -0.13856011650248
N         4.56857436142209      -1.15404585746513       1.04697956185324
S         5.14466542629004      -0.28866775478157       2.27813775877772
S         4.66988950425655      -2.75777263308088       1.12422228548161
C         7.01857014140325      -0.36533862617401       2.25435942464149
C         3.46661560200135      -3.33891420895614       2.44721888137059
O         4.83172291155844       1.08563287210465       1.93422020190718
O         4.73473506185548      -0.76041340066944       3.57858745703849
O         5.95651632292218      -3.27661530092289       1.49814101355731
O         4.04566052628912      -3.22841080436097      -0.09050626161190
F         7.48991188576390       0.78892457200999       2.69608822015109
F         7.43694882421226      -0.55160948783027       1.01411628005091
F         7.45910389476188      -1.33538605921643       3.02377330654894
F         2.98070225401602      -4.51899574017053       2.09793648949762
F         2.43895512053884      -2.47461705445160       2.49053807489901
F         4.00167979329799      -3.42875972735749       3.64143354721971
