32
C8H16F3NO3S optimized with ForceField in AMS.
N         0.81696819196107       0.00466356594004      -0.09179657067364
C         0.05202903507480       1.23760634679890      -0.44048280936834
C         0.04875904772942      -1.22188275776612      -0.45528723695675
C        -1.36950163600015       1.26126567427219       0.14924271771546
C        -1.37245013659613      -1.24918743971760       0.13500967036447
C        -2.14455309858536       0.00917023962038      -0.25428476122010
C         1.18052350184349      -0.00529195632652       1.34775669973869
C         2.08061339470585       0.00758258953963      -0.86920178895817
H        -0.04485333432478       1.32882188581716      -1.54735744354595
H         0.59428588302049       2.14603247528951      -0.09228498230866
H         0.58872375892834      -2.13596270870812      -0.11828348284400
H        -0.04878912333466      -1.29954433023933      -1.56312714330380
H        -1.90592073132178       2.15608370419686      -0.23394398283792
H        -1.33713189000596       1.35113415182445       1.25519709043456
H        -1.33985400152117      -1.35160372133873       1.23990438823753
H        -1.91111655020581      -2.13843794439295      -0.25772305890368
H        -3.13570986736665       0.00744914175832       0.24806518224064
H        -2.31559504165255       0.01556707701677      -1.35352324471158
H         0.29174509980916      -0.00817422672305       2.00849954506929
H         1.78088261329261      -0.90841759540739       1.59814678961788
H         1.78521842516793       0.89075490379010       1.61337655008383
H         1.88260605085483       0.01399562615565      -1.96464152099815
H         2.69542073211806       0.90569912945328      -0.63314260401607
H         2.69309996055525      -0.89484790211898      -0.64357177614897
S         1.80877383882572      -1.61563353416697       5.50385153527878
O         0.74392795527553      -2.58605534870645       4.97138585344861
O         2.08537465984862      -0.70631278620500       4.29900025947473
O         3.07192784921536      -2.48605443647643       5.57697066070292
C         1.37556500277551      -0.74294773462468       7.03448770457620
F         1.24183235347574      -1.65394505882394       8.06447619844716
F         0.18253924120557      -0.06848295368979       6.85866813910603
F         2.37273519463164       0.16117298375882       7.34642824075900
