35
C9H20BF4N optimized with ADF in AMS.
N         0.12241790485955       0.21271042875372       0.30916804893139
C        -0.96732710369649       0.99127276206809      -0.40268692509263
C        -0.20319906939397      -1.27812841399449       0.24890506514196
C         1.42125029141962       0.47875151763797      -0.43312975027707
C        -2.36198967077160       0.69765930934931       0.12822599001316
C        -1.58892422989074      -1.59439188014837       0.77904744759029
C        -2.67289601372915      -0.79827915195600       0.05810130116492
C         0.25316713059491       0.67613634717617       1.73193425577316
C         2.65266558469087      -0.22060738717654       0.11630001764295
C         3.87159415734437       0.13029173230713      -0.73568957893099
H        -0.89733053844364       0.70229001292290      -1.46462581963991
H        -0.70391781370764       2.05673036290943      -0.31122456197293
H         0.55590713265831      -1.80266644982692       0.84200097250473
H        -0.10803607567483      -1.54876722085011      -0.81700289665848
H         1.55393475332319       1.57421427489224      -0.41783707338838
H         1.23577891795810       0.17333553341821      -1.47648911540259
H        -3.07112917395985       1.28276615371249      -0.48124519388167
H        -2.46391284293935       1.06410907970200       1.16348868001371
H        -1.60603857607488      -1.43139870331646       1.86897216284159
H        -1.72525121953369      -2.67992589905927       0.65434597554579
H        -3.66116325849976      -1.00090828202009       0.50006271979796
H        -2.72374056845550      -1.10703541930762      -1.00360464160045
H         0.99826032829971       0.04841602543644       2.23619771993103
H         0.53296424937450       1.73882872038093       1.71537737574046
H        -0.69821696112364       0.53189176810568       2.24946007051065
H         2.83158721132237       0.07053789777321       1.16109395854838
H         2.50513108604708      -1.31034471045325       0.12880809291514
H         3.74000721621501      -0.18652978218541      -1.78236783968546
H         4.07259278393122       1.21352010243512      -0.72801782793026
H         4.76157629966112      -0.37833077721982      -0.34037078797658
B         0.84293976165080      -2.52592177700173       3.33191382152773
F        -0.18070226967980      -1.58878046235950       3.69700875627583
F         0.30730266056882      -3.44392113550864       2.38103939505129
F         1.35819831345217      -3.17489286124535       4.45084568483853
F         1.89290012060278      -1.77305766945147       2.66027362323677
