52
C14H18F18NP optimized with DFTB in AMS.
N         1.65665408055574       0.81518129424785      -2.28782697224549
C         1.53247547254357       0.42040535249073      -3.72982382408210
C         0.24438058509275       0.80276378572470      -1.79686320459735
C         0.24924627230240       1.08114145932558      -4.22068015706454
C        -0.58801606610513       1.34413696956951      -2.95844826188359
C         2.51724731083823      -0.18102384314691      -1.56640927127649
C         2.22278389504902       2.19009776231494      -2.19329821023681
C         2.74659411687944       0.14607076475465      -0.09346300459431
C         3.53924738206849      -0.98922282219599       0.55445754569142
H         1.46415270264547      -0.66789703987434      -3.77345388893042
H         2.41862676934375       0.74650582488377      -4.26758080274979
H         0.16229315350033       1.40152294195018      -0.88983421976603
H        -0.02081903227238      -0.23305827242817      -1.57305281669278
H        -0.27049083932858       0.42022668804904      -4.91574524798816
H         0.46914261995326       2.01453167627807      -4.74216971716747
H        -0.77688964003815       2.41212106244681      -2.83306468811518
H        -1.55077571513631       0.83211049867665      -2.99877382395691
H         3.47157408325926      -0.22052908053409      -2.09342959066519
H         2.02464355719618      -1.15215720342685      -1.66508600305389
H         3.26662732152085       2.16261149133639      -2.49335878191469
H         1.67014237652824       2.84610379849014      -2.86092572342139
H         2.13395449131432       2.54796841909233      -1.17035170086614
H         3.31398458323983       1.07505609414633       0.00229180007779
H         1.79054977379658       0.27136257675963       0.42382779063288
H         3.72774424992125      -0.75387901499157       1.60107421634525
H         2.98293581867633      -1.92546335041133       0.50034534942539
H         4.49439712292639      -1.11932268916575       0.04680189803242
P         5.64120057562220       0.96923588198517      -4.78936757774903
F         6.01654549316894       2.52321881238352      -4.29759669204966
F         4.53093865390429       0.86788641887794      -3.46341199093407
F         6.68358077567916       1.00651796385156      -6.08899147835996
C         4.25054398326256       1.88556377542626      -5.85343280130888
C         7.12971589108127       0.41169935680632      -3.63362454168726
C         5.02358921593556      -0.90298295287451      -5.19211543654412
C         4.70863321720184       2.87929576598318      -6.95794572778008
C         6.84804666190880       0.29298325654188      -2.11068286761852
C         5.44092789834141      -1.58329621739852      -6.51897945056700
F         3.47913574672833       2.60383037379877      -4.99459058018682
F         3.40546460218828       1.04127901225140      -6.47978700276365
F         8.10542264878640       1.32679829668029      -3.75252184359708
F         7.65300403608885      -0.75595640074915      -4.04249651175361
F         3.66494597682860      -0.95025913158761      -5.14767537500744
F         5.42432199394166      -1.70626295235285      -4.18659636439020
F         3.64631161400529       3.57522626750541      -7.38390299727514
F         5.20487239261344       2.22180816907593      -7.99923534319595
F         5.61384919717178       3.74816048422984      -6.53279090433587
F         7.95426478051231      -0.02995831212226      -1.44514463134924
F         6.39755410533063       1.44748338552625      -1.61779951696035
F         5.92866231419196      -0.64191474728026      -1.83422554321925
F         4.81654680057856      -2.75528340014207      -6.66475438723544
F         6.74816212387792      -1.80545759610653      -6.55085750290827
F         5.11537593997899      -0.81625736407229      -7.55745539895961
