44
C12H26BF4N optimized with ForceField in AMS.
N        -1.63163837812682      -0.28797769279850      -0.18054296943855
C        -1.91058194558645       1.12590182586470       0.21636472590873
C        -2.64231669068952      -1.20750866864664       0.43255766483257
C        -0.29482892856549      -0.71008596676670       0.35416701755214
C        -3.35509429911697       1.57189962224762      -0.07028645667890
C        -4.10652328405845      -0.80554366557899       0.17393061991421
C        -4.35789925716124       0.63730117405182       0.59654065510600
C        -1.64369400250950      -0.43698398176276      -1.66175250041524
C         0.92730633094674       0.06840542339732      -0.19309446025059
C         2.22330280043769      -0.46214609078028       0.43312329408265
C         3.45237389964041       0.26161731276313      -0.12973849113373
C         4.74016852075897      -0.29578797473916       0.48719328002044
C         5.97426106604365       0.39720488619239      -0.08023771110427
H        -1.24133142974172       1.82887881993847      -0.32423822852122
H        -1.71895027438688       1.26544723005155       1.30492864267602
H        -2.50838884670765      -1.24604701036469       1.53896071879522
H        -2.49720265915033      -2.24737478979948       0.06094174710684
H        -0.28302574512427      -0.61089555841614       1.46467040011777
H        -0.12885701414999      -1.79164990534376       0.13823041805761
H        -3.50145169465615       2.59892082492799       0.32805493453016
H        -3.54055667243764       1.61434714034979      -1.16428355127747
H        -4.38098455492762      -0.94818741191701      -0.89128535717782
H        -4.77091287855308      -1.47231141611696       0.76482130986669
H        -4.27190139656106       0.72350925984762       1.70183668069395
H        -5.38924694757228       0.93312623402685       0.30647014487312
H        -1.01142337562378       0.33177948862624      -2.15455215033260
H        -1.28028153606349      -1.44438449504471      -1.96480431990877
H        -2.65560774784570      -0.30871717120447      -2.09149703744697
H         1.00325175346040      -0.05360600450303      -1.29304323723741
H         0.84230624744831       1.14805252786769       0.04757762258758
H         2.18535845163738      -0.31892253509934       1.53588708426145
H         2.31352545007462      -1.55089736797973       0.22216307112895
H         3.37566713304522       1.34886763520336       0.09292124250726
H         3.48581506886972       0.12797669115060      -1.23376352901777
H         4.81468778921321      -1.38531597641942       0.27797182294990
H         4.72103204375055      -0.15034620127398       1.58936041358994
H         6.02846307859194       0.25389476492026      -1.18064477766417
H         5.94828737492192       1.48418043721914       0.14875791516603
H         6.88432142955382      -0.04281699808459       0.37901127347917
B         9.37775892215393       2.98459671656383       0.11015534373364
F         8.54806449961447       3.64179754900769      -0.83698990399512
F        10.71805791688348       2.97534763745925      -0.35913608710359
F         8.93155225492683       1.64893263790397       0.28534046673947
F         9.31476177454285       3.67093825075906       1.35191235392664
