52
C16H30F3NO2 optimized with ADF in AMS.
N        -0.17647260581937       1.74662061197299       0.02831318835950
C         0.33487761427420       2.81344761063276       0.97727442984681
C        -0.82966755961904       2.57299108714706      -1.05448798525633
C         0.97255651372254       0.96087990396455      -0.58665832068569
C        -1.14730318547978       0.84666566381825       0.75985033885292
C         0.91365373685791       3.88878444209678       0.06378817023570
C         0.10438503639342       3.77207674715058      -1.25928900552635
C         1.71350801121401       0.05817781090223       0.37488293404821
C        -1.74768415276635      -0.26235105166195      -0.08034858362555
C         2.85349026199391      -0.66888953549789      -0.33641482706984
C        -2.63760992239422      -1.12670828019252       0.81661343310561
C         3.58029161224662      -1.61877662760077       0.61511002625141
C        -3.24208261251612      -2.31679510111304       0.07783846385467
C         4.73557359634677      -2.35817673529880      -0.05213972060024
C        -4.06561337370600      -3.20944609810859       1.00240314470511
H         0.98031588475791       2.34002517217024       1.73353211464863
H        -0.56098877693645       3.18111950808785       1.50135100426152
H        -1.80678023857506       2.88202371394257      -0.65464032943638
H        -0.98476305736859       1.95275301412413      -1.94634637327711
H         1.65073597074026       1.70537047411205      -1.02901020014961
H         0.52997069669057       0.38325161623937      -1.41260355921253
H        -1.93349119826930       1.51756195173295       1.14315496679611
H        -0.60369566987431       0.41404684703400       1.62300729251704
H         1.98748051734347       3.72892150709791      -0.11308426763317
H         0.81043691774600       4.87952927595368       0.52816748654967
H        -0.48341690089830       4.67743301084016      -1.46986600545165
H         0.76769812673043       3.61252818669619      -2.12182145166828
H         1.03190959788034      -0.67775865350663       0.82995867711067
H         2.10919759841146       0.63787135417215       1.22351362164292
H        -0.95157273931153      -0.90643820469480      -0.49045565918843
H        -2.33125170953063       0.13428104389913      -0.93157094189995
H         3.57549702038542       0.06145484007288      -0.75013446002776
H         2.46045023429291      -1.24444116890004      -1.19682892160334
H        -3.44790107032929      -0.50533659964649       1.24167296591281
H        -2.02798838940710      -1.47765548713997       1.66744424590461
H         2.85049218521856      -2.33982260416089       1.02299601499097
H         3.94897831918493      -1.04131876608434       1.48086859097469
H        -2.42611331283034      -2.90843720921373      -0.37601854468007
H        -3.87005907581201      -1.95563984659273      -0.75772997995140
H         5.23704029052647      -3.03472245022851       0.65647165462438
H         4.38152765681104      -2.96368033792821      -0.90251008234078
H         5.49042982434917      -1.65169179174119      -0.43476465857374
H        -4.49643086710273      -4.06527863173384       0.46046466564489
H        -3.43897613909561      -3.60075244433599       1.81927890779259
H        -4.89356536573880      -2.64358105507114       1.45856982103967
C         0.74744090892197      -0.15607701091451       3.62371622876673
O         1.08373649901950       1.02879829104221       3.37520897591273
O         0.08847018331559      -0.97865571722184       2.93838146063770
C         1.25862075479687      -0.73292979833007       4.98989379718981
F         0.29605808330376      -1.45221639896972       5.64389515857566
F         1.69343826032521       0.22384840398506       5.85969216248755
F         2.31977105967970      -1.58611191649952       4.77791043361692
