34
C10H22ClN optimized with ForceField in AMS.
N        -0.50909338463558       0.00569311824211      -0.01036949097857
C        -1.40238045215796      -0.52660231376103      -1.08539619928904
C        -1.44059058553223       0.55453989646068       1.02292670999052
C        -2.81428190182551      -0.04944513465313      -0.80416209452253
C        -2.84193382282606       0.08158521814833       0.69175451678391
C         0.34718949238919       1.10099407486338      -0.57286881333372
C         0.29765590187654      -1.10447999823277       0.59397981619805
C         1.31618881844105       1.74728902099847       0.44632295191980
C         1.30875454174492      -1.76926042983551      -0.37002496523000
C         2.03313826205610       2.94917727057784      -0.16335208690922
C         1.98162773676714      -2.96848425931473       0.29346755425466
H        -1.09482034596937      -0.21566803146930      -2.11015970434489
H        -1.43752939454122      -1.64043902684813      -1.09045027860740
H        -1.17500016403916       0.25405283401012       2.06254078313731
H        -1.46966131822091       1.66858829706078       1.01356319757540
H        -2.97742206824540       0.94678364221058      -1.27291591826450
H        -3.58013180534544      -0.76754611232215      -1.16905283277692
H        -3.02467288806015      -0.91382246109525       1.15496610825214
H        -3.61760592841989       0.80265675288950       1.02906623731085
H         0.94229847294754       0.72890503960001      -1.43577601081802
H        -0.30535394942340       1.90230105805037      -0.99213739902337
H         0.85404496852836      -0.74160387474126       1.48609792761766
H        -0.38909779575594      -1.89450770575762       0.97849057793502
H         0.77023282078284       2.09039676583718       1.34926366518423
H         2.09005205924857       1.01780782205391       0.76180053035136
H         2.10464452221100      -1.05096746339646      -0.65475752299334
H         0.80548518251002      -2.11899152712324      -1.29511764986146
H         2.66194811221455       2.62713815312267      -1.01955619501365
H         1.29870739051163       3.70680462660709      -0.51052258567755
H         2.68951999239389       3.41789641133519       0.60002129728995
H         2.53112120290342      -2.64589484121347       1.20348054975376
H         1.22484178925409      -3.73170360002493       0.57427938787932
H         2.70439496404217      -3.42974010255225      -0.41211308514867
Cl        3.16181636327519       1.69326019767304      -3.86428278104108
