49
C15H32ClN optimized with DFTB in AMS.
N        -0.67338039317844       0.70333791457990      -0.51694044854631
C        -0.66705182576243       1.95616963965431       0.31372642656484
C        -1.90333476103558       0.69443365753269      -1.37694620155025
C         0.50553045144461       0.74001926959177      -1.46080857893807
C        -0.63025834227797      -0.50065253363257       0.38821928600115
C        -1.92817389348812       2.11404860250946       1.14931478739723
C        -3.19979237204512       0.84400164655724      -0.58683802202990
C        -3.17632163629858       2.10891936602101       0.27029405415762
C         1.89007199370761       0.70601837073700      -0.80323045369356
C        -0.33077817815944      -1.82307960378174      -0.30877101284253
C         2.55681107581988       2.08445469383243      -0.73630534417399
C        -0.43494723173848      -2.95385468500018       0.72275636817751
C         3.88845682998438       1.99347217425798       0.01549576922524
C        -0.09601059020853      -4.30788809118027       0.09284377743246
C         4.56421153907182       3.35915805129095       0.10934710946030
C        -0.19499641831511      -5.43501183405848       1.11908634253781
H        -0.56401354177490       2.79758274863945      -0.37677550777564
H         0.20301357093913       1.90120586415740       0.97755345007972
H        -1.90788494204490      -0.23881272099361      -1.94419183784505
H        -1.80554897062771       1.52808806597628      -2.07837732591525
H         0.39122935620584       1.65105975344710      -2.05590751753854
H         0.38373397901107      -0.11177999111182      -2.13362776254675
H        -1.59907004884603      -0.56346367974416       0.88471202790653
H         0.12631615758766      -0.29641985903168       1.15527818725980
H        -1.84910561685766       3.06762166075231       1.67714235863638
H        -1.98762805556362       1.32494227662064       1.90249985661872
H        -3.37323368924024      -0.03388986317295       0.04063747754128
H        -4.01695877333458       0.89753710195523      -1.31161431096603
H        -3.17418562533687       2.99039323295070      -0.37967897379670
H        -4.07378226449821       2.14678875133272       0.89212766581343
H         1.83777736901634       0.29610724754642       0.20599991611542
H         2.51881873887997       0.03556575724197      -1.39757388824886
H        -1.03495194476080      -2.00952829142118      -1.12640566427303
H         0.68029278333652      -1.81853836792121      -0.72362259276231
H         1.90320699313239       2.78997822813433      -0.21498259242071
H         2.71684619896056       2.46909405438631      -1.75069832503131
H         0.25349213747348      -2.75066637349263       1.54866481595870
H        -1.45066260384877      -2.98240314571417       1.13152536102714
H         4.55145357005984       1.28970082711829      -0.49943372986556
H         3.69855761381221       1.60858837160556       1.02193766996739
H         0.91988708351186      -4.27461945672806      -0.31485781137282
H        -0.78327051796070      -4.50716510814706      -0.73697335494681
H         5.51036657634056       3.26939273655583       0.64316900384230
H         4.76179656747553       3.76238353760439      -0.88561626485622
H         3.92795260630220       4.06214377107762       0.64892864142982
H         0.05242829331473      -6.38824213484631       0.65163546041406
H         0.49733358044194      -5.26147515432466       1.94359189618251
H        -1.20667326037636      -5.49729327282898       1.52237786560643
Cl        1.39676887934906       0.86563269586440       2.52326645848241
