36
C10H17F3N2O3S optimized with DFTB in AMS.
N         1.20361985910369       0.47223378681102       0.13847235596458
N        -0.58052713449259       0.31334200734702      -1.05354991016807
C         2.41584811560674       0.11439054766048       0.86661952076593
C        -1.69358632159777      -0.24103606022296      -1.81429494347523
C         0.32623397656138      -0.38803752927465      -0.37823819925698
C         3.58801148404167      -0.11545430378574      -0.09577570876881
C        -3.02297812778912       0.05360554773219      -1.12005241227864
C         0.86831206067743       1.74087581184129      -0.25025199846182
C        -0.26167343934974       1.64037007906124      -0.99737464169805
C         3.44073106006857      -1.40533764795085      -0.89574978256026
C        -3.14165427651699      -0.66871802317754       0.22085909574803
H         2.20577077260047      -0.78664737298924       1.45088288291380
H         2.64113941029513       0.93695199011298       1.55034975469984
H        -1.52953323195977      -1.31601960667204      -1.91381071047942
H        -1.66207798969726       0.22102211682317      -2.80513422904525
H         0.33998350651820      -1.45815332413855      -0.26998068921028
H         3.65625585729195       0.73195751043730      -0.78205565702350
H         4.50084004923555      -0.15004901570892       0.50614822689016
H        -3.11992724413169       1.13246371534487      -0.96780056284369
H        -3.82801410100829      -0.26908056511515      -1.78547564064440
H         1.46364631565499       2.59533536923229       0.01749849067309
H        -0.82935707873831       2.38472965055640      -1.52599941575447
H         2.56466310746775      -1.35117781804234      -1.53999565277552
H         3.34562007983329      -2.26738293014514      -0.23320366683023
H         4.31747814501069      -1.54139045517206      -1.52741291471880
H        -2.35053006101535      -0.34721342381596       0.90014407105646
H        -3.06355032503651      -1.74780247697700       0.08248061884555
H        -4.10434028160709      -0.44546869942901       0.67956891551242
S         1.44258211536746       0.84158108699491      -3.81252276708242
O         0.05371543970116       1.26415010770219      -3.68431246344617
O         2.18362956502698       0.88603393298627      -2.55867637152504
O         2.13884387716146       1.33751995003439      -4.96688343343530
C         1.28750750411323      -0.99291442104356      -4.09138149070328
F         0.61454894535956      -1.29677381586483      -5.19158904183259
F         0.61720301238835      -1.54064390436774      -3.04956384443201
F         2.47368042255481      -1.58958896338475      -4.14118851251963
