61
C17H24F18NP optimized with DFTB in AMS.
N         1.52921528462013      -0.09694750167251       0.67273843224237
C         0.08253686634277      -0.44607220441391       0.84708481894184
C         1.90937482898567       0.42956689429642       2.02650119878413
C         2.34269310166370      -1.32725228253422       0.36845273975073
C        -0.02703166457603      -1.02880872693742       2.25462031665395
C         1.17463260790263      -0.45908710953633       3.02373054341352
C         1.68271999555418       0.95707184405811      -0.38316101086100
C         2.09805594245518      -1.93774416152264      -1.00868546249512
C         3.11840910660893       1.44408169231911      -0.57359691253250
C         2.79055064037769      -3.30611288675290      -1.07816468695703
C         3.15260852729252       2.52989250705275      -1.64693598479188
C         2.61103783067245      -3.94448515851820      -2.45272996349804
H        -0.49211714073760       0.47906154974656       0.76176021072064
H        -0.23189682547640      -1.13448440863911       0.06389023087676
H         2.98910134554859       0.40150556801559       2.14482551756004
H         1.56347869368889       1.46369431950019       2.08701541122201
H         2.11489376807768      -2.05486909491294       1.14887072706638
H         3.38904959991989      -1.04299067964818       0.46432059848433
H        -0.97483563336416      -0.73333003850997       2.70754242836998
H         0.01011494236863      -2.11944717183003       2.22701303156503
H         1.82492607298408      -1.26052608797662       3.37757846443744
H         0.86082634524575       0.12823585372157       3.88769805490193
H         1.28745374860864       0.54147246328768      -1.31338258400969
H         1.04521965218327       1.79440603285576      -0.08457043300564
H         1.02846768306557      -2.06503644158671      -1.20175743940441
H         2.50766851323849      -1.28956457076200      -1.78809869569180
H         3.50200327985167       1.85069967711778       0.36371564372573
H         3.76712809696338       0.61963358853354      -0.87440568932999
H         3.85554655217363      -3.17928178921091      -0.86892599774391
H         2.37186223259974      -3.96302923243837      -0.30902492523331
H         2.79594950030805       2.14109182081978      -2.60151892097849
H         2.52956528724595       3.37741014760152      -1.35868583755854
H         4.17688624809326       2.87765563247112      -1.77264106196097
H         3.10269893072239      -4.91654776754932      -2.47294752285774
H         1.55255511628977      -4.08403560591323      -2.67764087094260
H         3.05209891742390      -3.31555254845575      -3.22686995718236
P         6.37312323526110      -0.37940821805464       2.02683405256883
F         7.20986169970679       0.42222159289546       0.83461364823009
F         7.74076524301882      -0.96516381938455       2.75891118855913
F         4.89694070578616       0.20414675500349       1.33643918998773
C         6.54892893680864       1.30286747436657       3.01634771875962
C         6.40024284858694      -1.89639872402539       0.72529226414604
C         5.19171945440695      -1.38677924743194       3.34787131756377
C         5.68874963584425       2.51037866929425       2.55169498585103
C         6.23826936492463      -3.41531287219317       1.02457204654359
C         4.52066937955303      -0.90262047722335       4.66143083228109
F         7.82783772812795       1.69805560679162       2.94950683239652
F         6.26450593555693       1.11913471086570       4.32040408768713
F         7.59989500615620      -1.82933811610943       0.12645058132773
F         5.46966482672411      -1.63872754133922      -0.23133660242846
F         5.83441454893102      -2.52100426201339       3.67090568706950
F         4.10868142123100      -1.75826778345940       2.59159184526860
F         6.01914765203654       3.61172665046294       3.22121284434149
F         4.38309818518881       2.28591708143813       2.77500047918391
F         5.83162257837972       2.76184642290411       1.25396894449387
F         6.45473645189357      -4.08509039943968      -0.11431135003448
F         7.11040492920881      -3.84984220038435       1.92053786691826
F         5.00700920432667      -3.73883516740531       1.42481737786335
F         5.36371794205345      -0.76066351832572       5.66689271589491
F         3.59321685261734      -1.79804308502994       5.03274509844562
F         3.86870126164765       0.25144368642098       4.46339798749939
