41
C13H24N2O2 optimized with DFTB in AMS.
N        -0.06579180645979       1.51531262313643       0.27459320028594
N        -1.06428193439389      -0.09685416468058      -0.70414824125559
C         1.38295069386102       1.93749382655456       2.21312488968247
C         1.95185472878671       0.51502421902470       2.27785247370743
C         0.99712796848532       2.36484026353732       0.79129704818254
C         3.35394290418270       0.41156613477534       1.66948844158418
C         3.81080373003225      -1.04739842058101       1.58735733993364
C         0.13907838850284       0.45026057109200      -0.51127001676426
C        -1.39708121448490       1.64141672089279       0.58273057591838
C        -2.03163833388599       0.62203914853155      -0.04931338659635
C        -1.32369376856907      -1.24459192942739      -1.56560353990953
C         5.18019894034790      -1.15741107845112       0.92055004915061
C        -1.58045527775358      -0.77104536529485      -2.99186969944633
H         2.12077422218245       2.65163304336212       2.59075664083890
H         0.49475154078006       2.00136838035475       2.84964153116581
H         1.27273333232058      -0.16722817848307       1.75520220569943
H         1.98645444135633       0.20391312079161       3.32707565185967
H         0.64077909950351       3.39884897338860       0.79436182330394
H         1.84755881114678       2.28220957810939       0.11042001764471
H         4.05975113011989       0.99290947356416       2.27317234642720
H         3.35040997900123       0.82954045394779       0.65923522230532
H         3.08100495702980      -1.61392534387213       0.99957819642535
H         3.84902445860226      -1.48303094743159       2.59216412171919
H         1.24982752647770       0.12189674065324      -0.92571964853429
H        -1.77461460905760       2.43361288962687       1.20564269797459
H        -3.07238235686562       0.34945805300994      -0.07975466239350
H        -0.43820790826649      -1.88378922893072      -1.54262312447109
H        -2.18533265340860      -1.78552456483385      -1.16418427801308
H         5.93207760032478      -0.60660872434279       1.48821602915025
H         5.13587960356560      -0.74939935737002      -0.08968198953494
H         5.48505548621030      -2.20265069213720       0.86021698673770
H        -2.40110866267778      -0.05391599559155      -3.02118930291069
H        -1.83129641357732      -1.62931869739968      -3.61345038734273
H        -0.67709471543233      -0.30650586628668      -3.38473832603625
C         3.76754378320957      -1.37862138448461      -2.93945331544583
C         2.43630993375724      -0.94945883652498      -2.30991861809643
O         1.38346420823934      -1.39886606674464      -2.75952290435417
O         2.53489147856831      -0.14252653552359      -1.32722990193806
H         4.19644343366017      -2.17021711398925      -2.32521122696703
H         3.60122615865603      -1.75927470066490      -3.94483309944127
H         4.45977327422228      -0.53915600660697      -2.96070034294585
