46
C12H23F2N3O4S2 optimized with ForceField in AMS.
N         0.27597029712718       2.23426973854575      -0.07759152319762
N        -1.82152208164593       1.49594081438522      -0.08782084854487
C         1.65383216945581       2.47590649925062      -0.50256492118216
C         2.61857553630034       1.48151920897998       0.15839133160526
C        -3.05112367082347       0.83896594686552      -0.52830773257385
C         2.25315988805939       0.02578075888011      -0.16799112045394
C        -3.19250498826643      -0.54975116649513       0.10948782236993
C        -0.71284775904264       1.70461539147388      -0.82386008326909
C        -0.22708173626515       2.37663953071021       1.16557489380525
C        -1.52895996220777       1.91914550164957       1.15892250289805
C         3.27899755488795      -0.95004166208026       0.41615406778608
C        -2.06775441463706      -1.49843370798699      -0.33024519500734
C         2.86814271267117      -2.39671516587043       0.15685265614036
C        -2.23074992483480      -2.87838133764230       0.29870575128359
H         1.94511880405254       3.51303740307213      -0.22995698598028
H         1.73347937625757       2.38368680249603      -1.60831465947646
H         3.64736579640078       1.69573030096672      -0.20450007354128
H         2.60584419694036       1.63231361303681       1.25899759928482
H        -3.92258665042534       1.46738073645924      -0.24451285100251
H        -3.05639840990367       0.73903422760291      -1.63631485946872
H         2.20567078249219      -0.10691656328924      -1.27134385476750
H         1.25413023100923      -0.20673468197666       0.25980257401919
H        -4.17236321530947      -0.97834961757067      -0.19457539333671
H        -3.19145128111026      -0.45086600793232       1.21694439824969
H        -0.60847511708113       1.42181709408609      -1.86426440270701
H         0.32235849465271       2.74859960153690       2.02063086415912
H        -2.19910425084497       1.86672507918192       2.00705835120791
H         3.36369582092177      -0.79493086625678       1.51251813283699
H         4.27446071806884      -0.76720599995034      -0.04355771184207
H        -2.07578376398097      -1.60232204445646      -1.43712791510033
H        -1.08255096362347      -1.08785525655009      -0.02302551575935
H         2.79291205678924      -2.58682392463123      -0.93500459788756
H         1.88772909533755      -2.61075625003605       0.63428725641176
H         3.62868799963329      -3.08209935705591       0.58640946141328
H        -2.19681326089700      -2.80283168685647       1.40653391290986
H        -1.40339231704798      -3.53895961135557      -0.03666038853412
H        -3.19633873996846      -3.33233707657710      -0.00997896351583
N         2.52080839407185       0.55314674781490       5.96530442872666
S         2.49077491713021      -0.93824573871754       6.63614676663219
S         2.78361978210996       0.75392313462789       4.36356984806498
F         3.95589389434657      -1.70391615780610       6.37076450476832
F         1.58267736959841      -0.02644991656756       3.49602630009615
O         2.24321863841919      -0.82033777899923       8.11329068967703
O         1.39690428431735      -1.75401811981208       6.00649415951100
O         4.11485577463348       0.16337988502556       3.99241784027014
O         2.77417342073101       2.21929012612453       4.03276015642098
