49
C15H14F18NP optimized with DFTB in AMS.
N        -1.15659160042636      -1.53164024530087      -1.75958364068173
C        -2.48629054914080      -0.37749364388520      -0.04167664146339
C        -1.15736664574174      -1.06567843372158      -0.36659917254875
C        -2.44483465269567       0.25155729827111       1.35332688776689
C        -3.78650774532661       0.90008515952635       1.68896803779981
C        -0.82785310245611      -0.66539837753728      -2.73377478207793
C        -1.54386684517978      -2.78539581337757      -2.04757749464145
C        -0.83532463879702      -1.06042281307635      -4.05253601557844
C        -1.55410880854058      -3.23100371533372      -3.35177181087880
C        -1.19574561987262      -2.36303874835231      -4.37503316074099
H        -3.29119346139420      -1.11338657645843      -0.09157451178994
H        -2.68593666444162       0.39034001123189      -0.79364786636379
H        -0.99727960526778      -1.93000512421067       0.28208699960933
H        -0.32178542774648      -0.37092696040257      -0.24572114914405
H        -2.21318886249161      -0.52049245698299       2.09492513042725
H        -1.65011491596002       1.00443588991152       1.39230390751654
H        -3.74267690855591       1.35184306972310       2.67966033992497
H        -4.02823643077151       1.67417222640097       0.96058430850730
H        -4.58221600292300       0.15515421413818       1.67853255340557
H        -0.55902546816908       0.33822816902220      -2.42735994026797
H        -1.84095312133513      -3.41265657880567      -1.21634086767541
H        -0.57960329692968      -0.34482425319595      -4.82308541786415
H        -1.88050865609969      -4.23999611937184      -3.56648431758527
H        -1.22183550718492      -2.68809138387818      -5.40655683950724
P        -5.06323905786127      -2.37356585042888      -4.48423483146568
F        -3.58835981389855      -1.71540050040346      -4.99846666357423
F        -5.89456925625906      -1.05420115810588      -5.06648317514135
F        -4.19433817603275      -3.70925861612638      -3.87538834378705
C        -5.09877975425344      -3.15233675706011      -6.28564014509671
C        -4.70734520935780      -1.36620250469509      -2.77262669313604
C        -6.72130424276516      -3.16963082633478      -3.69541601486774
C        -4.10812735561660      -4.30028095840307      -6.62003297936055
C        -5.79206280156731      -0.51854573991265      -2.04033581699576
C        -7.49554826617643      -4.41504639039703      -4.21531797816376
F        -4.82828182397592      -2.17254692662501      -7.16526994032624
F        -6.33245460066620      -3.60431066948951      -6.57206572280526
F        -3.71111806948287      -0.47031941658854      -2.99533026866521
F        -4.20977506343653      -2.20423570619871      -1.82622110123718
F        -7.63294221582153      -2.18733925684525      -3.57090749004961
F        -6.33566771064726      -3.50691467310141      -2.44273449863974
F        -4.15565747797322      -4.59704016009525      -7.91730858348635
F        -4.36526426190706      -5.40814125913262      -5.93659327961003
F        -2.84520668978595      -3.93713694400995      -6.34139219901971
F        -5.16326258341955       0.30942648671152      -1.17982456519562
F        -6.49497404360337       0.23858535136740      -2.86751565734279
F        -6.62193581906589      -1.25548912100760      -1.31726989297052
F        -8.35306366578558      -4.09623577654588      -5.17588842294681
F        -8.19299489193726      -4.95879587734575      -3.21624614087596
F        -6.66018631535545      -5.34616415636029      -4.67331179178856
