43
C13H24F3NO2 optimized with ForceField in AMS.
N         1.98947575013661       0.45255914153707       0.08545117213507
C         2.25266422703569      -0.86289445907178       0.73213590665726
C         3.09139017111509       0.64066164449410      -0.90642313639943
C         0.67718785053300       0.45987739505593      -0.63173245174766
C         3.67989256462307      -1.25939599247702       0.40851871581745
C         3.92442531296315      -0.62879143788027      -0.93556766858826
C         2.04337076583692       1.54195829055674       1.09397448907776
C        -0.56058923203495       0.26694710240609       0.27536935460759
C        -1.82643441189988       0.10150923656145      -0.57569510027826
C        -3.06990321015954      -0.09765801328816       0.29860142368287
C        -4.32976590563323      -0.21557566611570      -0.56763651201656
C        -5.57684882850158      -0.41429300060274       0.28827698585274
H         1.59031501762880      -1.66133758121285       0.32522214994392
H         2.10018873667026      -0.84542867037260       1.83557341254979
H         3.76654717111594       1.48686665732541      -0.63816189943004
H         2.72591195690492       0.86198915773323      -1.93557015958435
H         0.67560499657137      -0.34284406235015      -1.40576935743797
H         0.55163538830383       1.42369373892276      -1.17710965389903
H         3.80694752492691      -2.36343153643387       0.37317013885725
H         4.37423328161921      -0.82540158169360       1.16166776043073
H         5.00099139063706      -0.41208132145832      -1.10106923038032
H         3.55385150925931      -1.30408816290506      -1.73867806849054
H         1.31786262498979       1.37444826423772       1.91844148039309
H         3.05013418762625       1.59701448280376       1.56601614536513
H         1.82499530750773       2.52715477015866       0.62488227785589
H        -0.43843015734574      -0.62740120637912       0.92176029447439
H        -0.69404173288425       1.15829794393512       0.92399286453645
H        -1.70841982731942      -0.77879966156291      -1.24542566293161
H        -1.96189639248527       1.00836699965155      -1.20590668992171
H        -3.17829076514265       0.76645487035964       0.99055695162241
H        -2.94935323854448      -1.02333654465170       0.90359461527682
H        -4.45494472126485       0.70838908346159      -1.17337353521250
H        -4.22863622830684      -1.07904022289155      -1.26079676125705
H        -5.71495970559225       0.44731335528214       0.97560192093824
H        -6.46885583064198      -0.48992980325558      -0.36891533737101
H        -5.49277740164752      -1.34943545458279       0.88169795010957
C         8.48712764865448      -0.97827579604992      -0.10901505404241
O         9.13900010404294      -1.32746780292321      -1.08029992101787
O         7.30079791930922      -1.25593008331961      -0.04793305552044
C         9.13331521696746      -0.21408057673950       1.00798463425434
F         8.53517906025235       1.02700595773828       1.12463803342703
F        10.48463059146169      -0.04251206387931       0.76259270391147
F         8.97580095091138      -0.90813948472390       2.19341639594973
