27
C7H13BF4N2 optimized with DFTB in AMS.
N         1.27177058985265      -0.59247362290769       0.30124179697439
N        -0.50884776147465      -0.03489662711125      -0.76684388838533
C         2.67219451647796      -0.64875236049750       0.70871011859410
C         2.83079293845602      -0.22711586489288       2.16810598931319
C         0.76192147232034       0.29655254101703      -0.54286725491074
C         0.31651181897992      -1.52146751477299       0.61133251869736
C        -0.80804651333419      -1.17185662246158      -0.06715585988962
C         2.47418269764608       1.24348208487299       2.37803334775387
C        -1.33788516498433       0.59892273178931      -1.77740867122578
H         3.22900895276815       0.00892847605566       0.03731824298098
H         3.01225357872932      -1.67507335492424       0.55309874881030
H         2.19904320980799      -0.85631867105328       2.80354662886131
H         3.87155113682919      -0.39991756015666       2.45423497558223
H         1.29307043868395       1.12436921013104      -0.98089283170265
H         0.51139997891872      -2.35152761252754       1.26728802408699
H        -1.77823849160236      -1.63507607535656      -0.10941906323344
H         1.43527565602946       1.42831302129473       2.10034813242412
H         3.11516751921387       1.88118715668672       1.76871159372094
H         2.60695718809471       1.51350815580888       3.42522538124590
H        -1.43753842684359       1.66130396148892      -1.55502699854962
H        -0.84200719657145       0.46758841790406      -2.74183184502345
H        -2.31744354766359       0.12552120799317      -1.78562657910918
B         2.55902090856280      -0.42997073213814      -2.70944170021688
F         3.26333040608148      -0.62230776951917      -3.86126941320593
F         2.57795522083192      -1.56217387071533      -1.87558699376059
F         1.19516625659930      -0.10906053857597      -2.98365277764776
F         3.08164229229037       0.66089186396825      -1.95376557418471
