45
C13H18F6N2O4S2 optimized with DFTB in AMS.
N         3.18502147036535      -0.76522760850608      -0.49193451678902
C        -0.60240661632090      -1.15618099321619      -0.38569935915803
C         0.80270793811628      -0.81474584212036       0.11947241416015
C        -1.65191651961793      -0.92305350870780       0.70495301530651
C         1.83294392692128      -1.05360742209298      -0.98390943033809
C        -3.05744555646487      -1.26690515707443       0.20147386815275
C        -4.10792260104926      -1.03799698049677       1.28652180905578
C         3.81225310897458      -1.69995977929439       0.24055919079221
C         3.81267329137634       0.35536419602619      -0.87734932800191
C         5.11473081026052      -1.50681771171239       0.65196644044118
C         5.12081470208806       0.58461693001863      -0.50460632539653
C         5.78784765174858      -0.35507569075506       0.27007160523914
H        -0.62753902947905      -2.20378388614570      -0.70247025068005
H        -0.83415672759696      -0.53671619709425      -1.25824148537241
H         0.84481844156261       0.23330452618523       0.43260523076137
H         1.04789969938104      -1.43616114032023       0.98640960747279
H        -1.41352940102538      -1.54160184776200       1.57697599942933
H        -1.62178411192319       0.12541718134193       1.02106483649850
H         1.64400103329347      -0.41089222783069      -1.84557991497321
H         1.83024538771293      -2.09507340755021      -1.31664609863867
H        -3.29252310770466      -0.64748123149851      -0.67050596701865
H        -3.08309177280258      -2.31463976834831      -0.11576584789468
H        -4.11086729875102       0.00620678555047       1.60223126555987
H        -5.09793485514867      -1.28853925195179       0.90547830900683
H        -3.90179777405730      -1.66303855108240       2.15642824548992
H         3.26708509909530      -2.60976545273752       0.46030688891793
H         3.25971322044516       1.03727275117360      -1.51028623520363
H         5.60688907615443      -2.28230790183141       1.22418850297621
H         5.61841975507567       1.48304884538559      -0.84595355494593
H         6.82355113817380      -0.20419184734223       0.54821507607005
N         3.98555390412004      -2.75935885884758      -2.21553071043802
S         4.71965336604494      -4.16632303773297      -1.95198530958624
S         4.42057069125713      -1.82337926201775      -3.43893773882679
C         6.57845947614821      -3.93887278559835      -1.81279497230544
C         3.99306040455962      -2.64894008844585      -5.06781537907484
O         4.32935788081123      -4.52375045184283      -0.60453469505375
O         4.53838404557703      -5.13242103604585      -3.00238249179579
O         5.83486459054555      -1.53853487373805      -3.49718175735426
O         3.51890972537813      -0.68469055927014      -3.37786443449621
F         7.06080062752934      -4.95068277713201      -1.10916100168386
F         6.84527151673362      -2.81193950329252      -1.15134624401164
F         7.16929027694275      -3.90884889270012      -2.98571972590520
F         3.89281074341726      -1.71366013729098      -5.99842848444474
F         2.83039294712050      -3.26941890707782      -4.95728953828695
F         4.92468305861106      -3.50986445357710      -5.41691448995600
