54
C14H26F6N2O4S2 optimized with ADF in AMS.
N         0.76900167129284      -0.34489734442500      -0.68954622738983
C         1.51203732278388       0.12589151783634      -1.93748989337417
C         1.74628870492461      -1.32243635611277      -0.06041789517092
C         0.53297314533179       0.81820511179624       0.25021420422690
C        -0.51533472556912      -1.04027678216898      -1.08690846309125
C         3.00580160718484       0.07219172211028      -1.59618158063414
C         3.11377964310356      -0.68330821573644      -0.25178472010205
C        -0.53396957905258       1.79784989836068      -0.20841154182274
C        -1.31615605539837      -1.60259633207590       0.07258593559129
C        -0.57007700098766       3.03375541808219       0.69359144431551
C        -2.57747438911574      -2.29147976751108      -0.45893923331753
C        -1.64919142878752       4.02099391220940       0.25728160937838
C        -3.41937490971402      -2.90765938220258       0.65358491741969
H         1.13617471328169       1.11747554309152      -2.21359300277621
H         1.25082683472323      -0.58602021518188      -2.72681643721019
H         1.66884837107426      -2.24494899239165      -0.65198099792336
H         1.45878637067146      -1.50191635010939       0.98307758803774
H         0.27089293463283       0.38983114500609       1.22896828305724
H         1.50305456906426       1.32722939845789       0.35306182668956
H        -1.09807106044084      -0.31610584641011      -1.67378617167398
H        -0.21000572356377      -1.83339915013797      -1.78211943557962
H         3.51953725337791      -0.47953250096499      -2.39517760285860
H         3.45328444218956       1.07408133386929      -1.52991206411476
H         3.35584302124492       0.00063237949981       0.57632838982839
H         3.88910848733293      -1.46178016130483      -0.27766833645566
H        -0.34827800989430       2.11908411513046      -1.24708772804013
H        -1.52531293197582       1.31562358758994      -0.19653252788468
H        -0.71452978739150      -2.34049172704665       0.63150653275048
H        -1.60976203289068      -0.81069263505518       0.78482879317565
H         0.41786109384647       3.52820801309833       0.67723441293970
H        -0.74801019869192       2.72186060569527       1.73859344679930
H        -3.17972696966345      -1.55754425995838      -1.02405536377394
H        -2.28190852141449      -3.07089446251707      -1.18104962544281
H        -2.64642002390710       3.55388448255299       0.29079834136387
H        -1.47398767268888       4.36389014052676      -0.77471893479482
H        -1.66887963659178       4.90658947936267       0.90858316554612
H        -3.75386475394152      -2.14262995873260       1.37310567179664
H        -2.84529845803070      -3.66694280008826       1.20859663084556
H        -4.31435306980942      -3.39876076219883       0.24385687406158
N         1.12075212485945      -3.27939354795886      -5.18467021281960
S         0.34197968114538      -1.88275408227384      -5.35940376636495
S         1.73369955095431      -3.80551147221670      -3.80377750262226
C         1.74179304998241      -0.65448369720341      -5.75448651975560
C         0.35399521610360      -4.87004164986540      -3.07198512658328
O        -0.44323879493216      -1.93538632234301      -6.57884140305873
O        -0.25317343728452      -1.31884192823558      -4.14121100415508
O         1.93707352681983      -2.79352557587416      -2.75158925599674
O         2.79811770008369      -4.75430579252711      -4.07847024402132
F         2.14258938531483      -0.75758512900827      -7.03518738358397
F         2.81983117122402      -0.85145973500197      -4.94795822578139
F         1.29893162312135       0.61636837609571      -5.54071451175085
F         0.70688975373140      -5.25583387322116      -1.81316406134866
F         0.13034126513232      -5.97261031953143      -3.81053696533853
F        -0.80774403249574      -4.16810859058045      -2.97473208241124
