37
C9H20F6NP optimized with ForceField in AMS.
N         0.26460883520038      -0.11687692760393      -0.18616646629606
C        -0.59252701730768       0.70537266248206      -1.10039723980041
C        -0.50220761549111      -1.33782478493076       0.22635476503182
C        -1.95888488888474       1.08522722231932      -0.50577362137932
C        -1.88511506131538      -1.03458073530966       0.83766229943317
C         0.67825659918888       0.65362461243589       1.03848997409263
C         1.45668878817257      -0.55095224479045      -0.99287981271735
C        -2.72647477745854      -0.16571125394953      -0.09159515712400
C         1.55561548444475       1.89241472263448       0.78257877912932
C         2.52678200985293      -1.35263400094948      -0.22814147519824
H        -0.79538459061224       0.14087672954636      -2.04046805437607
H        -0.07200422231769       1.63123862326258      -1.42194329215446
H         0.06254483109226      -1.92537072489173       0.98234174121344
H        -0.66348885063608      -2.00975637440207      -0.64778997285615
H        -2.55057603879350       1.62504260680690      -1.27607063504991
H        -1.84647026005230       1.77781152596707       0.35395818763668
H        -1.78190746525759      -0.54651487970148       1.82948923525910
H        -2.42171379702130      -1.99295149074194       1.00714414224373
H        -0.20260150651551       1.00731430886733       1.60774621662635
H         1.21825595921788      -0.00791573770341       1.75030205982780
H         1.13045859445519      -1.18301523876996      -1.85054099076793
H         1.95638664042533       0.32554443812615      -1.46079476923814
H        -3.66591417197684       0.12839318891931       0.42461639702938
H        -2.99897166543118      -0.75029924381721      -0.99763208082245
H         1.82194576244605       2.35175317762569       1.75755109210369
H         2.50613948721171       1.63612987278354       0.27506003829814
H         1.00963962743466       2.66104173644649       0.20319734914014
H         3.32936600051216      -1.64606333911969      -0.93664412412876
H         3.00258712203603      -0.74697078857024       0.56861538078658
H         2.11265824642253      -2.28622056258666       0.20122432957987
P        -0.70081964686714       6.04994576656712      -1.20001117036112
F        -1.65015146192454       5.24453174100767      -0.01586131072889
F        -1.59749764859918       5.24131371239097      -2.42207734051567
F        -1.80154209638833       7.36699374892238      -1.27390522200293
F         0.26845280531330       6.84979227529733      -2.37147206524751
F         0.15314362622619       6.81909086082142       0.07713952372985
F         0.44666201159806       4.77287923400812      -1.21291516329635
