36
C8H20F6NP optimized with ADF in AMS.
N        -0.36522672230732       0.00118148037042       0.25397708830800
C        -1.56938205971106       0.08740324200414       1.19641532083535
C        -0.79674410212397       0.09983393641467      -1.19514639717381
C         0.32356113591113      -1.34195940929961       0.47667781998274
C         0.57958712540922       1.15246627218517       0.56229918042714
C        -2.72099991900780      -0.83603697666331       0.86219701417575
C        -1.59419758020354       1.33873788281687      -1.55625153570466
C         1.59785101008153      -1.55834015087257      -0.31245165654571
C         1.21747033552254       1.12385150100945       1.93562314075772
H        -1.18812144906802      -0.15311299299107       2.19614560334278
H        -1.88280660180400       1.14129740067653       1.17946803666890
H         0.12370775946273       0.05180465604496      -1.79145276303509
H        -1.37612118161137      -0.81197737882094      -1.39691556110967
H         0.49159942974924      -1.41971012307789       1.55772370323120
H        -0.42514438315630      -2.10302615883987       0.22691665590896
H         1.34117100599073       1.13958285059372      -0.23186354552577
H        -0.01878236218660       2.06522565056167       0.43980308965851
H        -3.44499256910473      -0.73797515774298       1.68486439584295
H        -3.22931257896377      -0.58617495998683      -0.08018711408298
H        -2.42004635232149      -1.89139374437171       0.87052216361731
H        -1.87455936064609       1.26020261717754      -2.61755177392192
H        -2.52284419601130       1.42571993550634      -0.97693526761088
H        -1.01495798128406       2.26533184057708      -1.44327938167778
H         1.98326706736751      -2.54912954472275      -0.02612579013450
H         1.44613863510022      -1.57404597016969      -1.40172289737730
H         2.38351637055464      -0.82854100705068      -0.07003316374073
H         1.84855150706891       2.02149741230353       2.02311578222870
H         0.48086855109429       1.14527262893638       2.74904957899352
H         1.85615180604228       0.24540360170526       2.09325771263619
P        -0.91136140368668      -2.34486689498325       4.21732273462439
F        -1.98127254312505      -3.47262786746459       4.71829530334518
F        -1.09378370686038      -2.87235168978312       2.63236881170507
F        -2.14944066995352      -1.25475904429391       3.95621286301645
F         0.16761366159337      -1.16401439647367       3.64327562980777
F        -0.71409354324829      -1.76743099908241       5.73472606334982
F         0.35315764273703      -3.37430730149285       4.39557397817638
