45
C11H24F2N2O4S2 optimized with DFTB in AMS.
N        -0.14404156450450      -0.10628672971637      -0.38359958312007
C        -0.20089407457254      -0.92104121880996      -1.64575806649311
C        -1.39731021387833      -0.49893044973405       0.33494604841465
C         1.05544489460750      -0.46533602539535       0.44285929897281
C        -1.67505971622610      -0.96238581547723      -2.03788138206652
C        -2.45663674888963      -0.64974610393522      -0.75322297618318
C        -0.17505563396228       1.35383278603944      -0.74452783975021
C         2.38141178742991      -0.16111650082664      -0.24765779518949
C        -0.03554536663378       2.32758863216945       0.42173598892802
C         3.55780056819622      -0.61584289474097       0.62235123438342
C        -0.28276696214842       3.74370947385452      -0.10245284001855
C         4.87794766513021      -0.31378846267918      -0.08509841520041
H         0.42575698948926      -0.46523621271737      -2.41168091626518
H         0.17467018016920      -1.91925866222828      -1.40982123941916
H        -1.20873626170930      -1.45398508063605       0.83112665702346
H        -1.64524246675138       0.25087084639475       1.08534762831494
H         0.98030639209995      -1.53570911013349       0.65593918012934
H         0.97307147403491       0.07861301744746       1.38719905170568
H        -1.88508351639540      -0.21986462422942      -2.80916532934153
H        -1.92932597935646      -1.94729274179199      -2.43237706528149
H        -3.14797622802896      -1.45311702932816      -0.49312958507768
H        -3.03228894011832       0.27124853617569      -0.86328740497750
H         0.63366787525447       1.52481170810256      -1.45523800972064
H        -1.11899754884561       1.52689003273498      -1.26306561945307
H         2.42726612648819      -0.67159150637400      -1.21169722847364
H         2.47569620350060       0.91069552606949      -0.42879862763168
H        -0.75244144886575       2.10146252208238       1.21683559597727
H         0.97045375596444       2.27231221330444       0.84588436872710
H         3.52471950682863      -0.09330081470844       1.58458697166880
H         3.47830004299281      -1.69051343975777       0.82012456495706
H         0.39683946193394       3.96912413685807      -0.92396975551018
H        -1.30617590514958       3.84240141908974      -0.46433440284375
H        -0.12085033502677       4.46571954614115       0.69687320422091
H         5.71596427431020      -0.60452827710158       0.54795371502401
H         4.93895113564682      -0.86533238064093      -1.02356061319445
H         4.95386859826260       0.75082403425892      -0.30597075070061
N         1.48699142792634       2.86781656958934      -3.07733702042014
S         0.22882662871255       2.78449505009619      -4.04328515248735
S         2.61338941362544       1.75878091092499      -3.25160448017182
F        -0.53450343207462       1.38985539126363      -3.53962230832100
F         3.30413374701459       2.06214260423746      -4.66745393742658
O        -0.68179029017244       3.80318530286308      -3.63968090881196
O         0.47141787541691       2.54562848092405      -5.42327496995587
O         2.13840371069703       0.40524895151990      -3.36522308354094
O         3.62361707897743       2.02237148502084      -2.27561027119966
