58
C18H34F3NO2 optimized with ADF in AMS.
N        -0.23155398584675       1.74916757361987      -0.62401610044216
C        -0.93304626612745       2.46008755606231      -1.80576061895986
C         0.29365811277534       2.87922044372839       0.25212520629803
C        -1.25781427753288       0.94423271358145       0.16877986768248
C         0.89329702040624       0.88378161846011      -1.13163440913497
C        -0.87316610169798       3.95846606735523      -1.50389898385922
C        -0.66810504723782       4.02579483953451       0.01126417582570
C        -1.80095837191989      -0.26204921753331      -0.57218687694078
C         1.65992097479598       0.14322893202763      -0.04902812716241
C        -3.01522220058744      -0.81857516544517       0.17438317735858
C         2.83990308724858      -0.63011895932778      -0.64206452670235
C        -3.59958476088369      -2.04853868028208      -0.51380636872334
C         3.61588147857484      -1.41226984260063       0.41662046305881
C        -4.84110857097607      -2.58837889839757       0.19243872544463
C         4.80885093522258      -2.17562724686189      -0.15515527258796
C        -5.42241714872709      -3.82468049907796      -0.48768450855651
C         5.57996549163706      -2.95215795646273       0.90879480770525
H        -0.41220283831819       2.17438803852861      -2.72848022110742
H        -1.97790614919160       2.10300512117970      -1.83305938732488
H         0.36066222485933       2.52950785051362       1.28953746658182
H         1.30163118306072       3.12418494909934      -0.11947553031453
H        -0.76471260537638       0.65136273355609       1.10843216765143
H        -2.08674444207681       1.64943852169082       0.38782218782831
H         0.44706560562886       0.17646004399681      -1.84627604712230
H         1.56127530188275       1.55632018602180      -1.69475471565282
H        -0.02814329700822       4.43430826589384      -2.02909912459716
H        -1.80412514447847       4.45077144830726      -1.81966135247147
H        -1.62887902870926       3.85124033112083       0.52252215510239
H        -0.24603752048364       4.98211824208760       0.35169460453105
H        -2.14281206399296       0.04140424981037      -1.57627598315323
H        -1.03651949250071      -1.05251341095612      -0.68558557583513
H         2.03782254666785       0.85220288244515       0.70845150140148
H         0.99180914460704      -0.56288326933112       0.47111681639745
H        -2.73896212059512      -1.07205209557523       1.21608797231939
H        -3.77610541375059      -0.01992011574760       0.21820113335735
H         3.52488207787289       0.07229070558994      -1.15278358519151
H         2.47239824989115      -1.32869080506225      -1.41717724487137
H        -3.86102880638853      -1.78273283414169      -1.55574297084455
H        -2.83469970113990      -2.84816139195952      -0.57185277505191
H         3.97051790924847      -0.71627697785815       1.20055917813683
H         2.93397754765762      -2.12395392854040       0.91904888496956
H        -5.60495339246758      -1.79094319298966       0.23049289348495
H        -4.58896981131647      -2.82718581524968       1.24245433511898
H         4.45388721025128      -2.87155240042351      -0.93712363220135
H         5.48818964398808      -1.46429216411590      -0.65915914124962
H        -5.70957014650132      -3.60321701258511      -1.52836415867662
H        -6.31782958859700      -4.18650892840176       0.03929308546675
H        -4.68805822981372      -4.64679702163820      -0.51141859065710
H         4.93082235938138      -3.68838192819349       1.40927474869115
H         6.42896147286402      -3.49574554832272       0.46835866413698
H         5.97691395096291      -2.27612063124149       1.68317837804714
C        -4.11383876495348       2.85454603780482      -0.74499755021945
O        -3.60071596411608       2.95891105675116       0.39874711612292
O        -3.93232598782341       1.99638493168173      -1.64430152954416
C        -5.06288244911124       4.03289588041554      -1.14677978486278
F        -6.05584212224061       3.66244370898028      -2.00224500199854
F        -4.32110722350056       5.00702190398563      -1.79882073362100
F        -5.65636364829601       4.64653815659230      -0.08475378728095
