36
C10H23NO2 optimized with ForceField in AMS.
N        -0.00364912435816      -0.00139655294756      -0.00089238108744
C        -0.84709905635480      -0.24395230690888       1.22181270842312
C        -0.85569273445975       0.25658847882959      -1.21439747959316
C         0.83183524276163      -1.22687338940865      -0.25596279176637
C         0.85665917836467       1.20862127663084       0.24506830588935
C        -1.91859704772461      -1.34498322858171       1.09158447436623
C        -1.90455069267733       1.37794887889616      -1.07349394687735
C         1.88680616915240      -1.10063763860258      -1.37360646677941
C         1.92223700060009       1.06204778030491       1.34996630138229
H        -0.20854047688593      -0.54276033873632       2.08084214607035
H        -1.35532440632978       0.69122532649791       1.54487464382407
H        -0.22081015274282       0.54284307159174      -2.08030767427481
H        -1.38497513544630      -0.66893467893696      -1.53143471083094
H         1.35318305447071      -1.55136141266163       0.67145674681757
H         0.18554651291966      -2.08346633939501      -0.54471890521686
H         1.37284522875911       1.52458558666814      -0.68817849067310
H         0.22927429175950       2.07650980860647       0.54174281769925
H        -2.48356766576105      -1.40496728684878       2.04579789613962
H        -2.65423509878420      -1.12578199268382       0.29333748151798
H        -1.46379222467989      -2.34082041036934       0.92030872638960
H        -2.47926319955724       1.44751510928647      -2.02127666973180
H        -2.63495653857192       1.17376071279308      -0.26656652587435
H        -1.42887054399610       2.36517641099846      -0.90910598843091
H         2.44766487290479      -2.05670785360622      -1.44201915452430
H         1.41757174826562      -0.92836002775377      -2.36257393262104
H         2.62840234377017      -0.30476557621025      -1.16631157981840
H         2.49776140719784       2.00946572857598       1.41625148422546
H         1.46189309948054       0.89158447557318       2.34311483655084
H         2.64949806078990       0.25636761514773       1.13012943556642
C         1.73553993320927      -0.88491136862745       6.41547825570454
C         1.09883951986719       0.29566362575286       5.75218126296791
O        -0.11646723854400       0.40253723149214       5.73470966119644
O         1.78997700326936       1.15474377156727       5.22885558249297
H         1.46191141855529      -0.90056741337242       7.49156006333714
H         1.37886735674930      -1.81987317560591       5.93440783300443
H         2.84217223632682      -0.83549567575567       6.32741202123466
