40
C10H15F6N3O4S2 optimized with ADF in AMS.
H        -0.79580527172440       0.87883327982913      -4.66391711369871
H        -1.89200728561529       1.04238857971267      -3.25829690004602
H        -1.59427849822495      -0.57362912100317      -3.96374216684787
C        -1.14514919425178       0.40206710976707      -3.73918312419255
H         2.87294887869571      -0.90785519837973      -1.75189875544213
H         1.19833518776644      -1.13037533741320      -3.99538047256005
H        -0.58349118060350       1.46655131230084      -1.15637426976820
N        -0.01999429209055       0.21838957726894      -2.83075508915333
C         0.12605779097344       0.79873954665809      -1.62773921076339
N         1.29634517433720       0.40601471682104      -1.11205322752212
C         1.91502452555724      -0.45215404795272      -1.99406093717389
C         1.08964615194749      -0.56703050609670      -3.07634841303480
C         1.79842673231969       0.74537693279198       0.23422886810037
H         2.88748379258880       0.85248447142461       0.14138560797123
H         1.37929247312757       1.72900283610229       0.49663558258706
C         1.41872534692884      -0.33167879335811       1.24215421452154
H         1.83923407035966      -1.29180009171064       0.89805024934010
H         0.31665945421868      -0.43056185048087       1.27428740753130
C         1.97033781235771      -0.01248874063614       2.63048410161264
H         3.06744554511105       0.06011747200463       2.56163688833741
H         1.59369754215608       0.97087211522881       2.96754206899578
C         1.59974095156510      -1.09247056657632       3.64245680087115
H         2.00992779048304      -2.06521263531375       3.32975018805904
H         0.50736353460636      -1.19586427257616       3.74605296811294
H         2.01674523083156      -0.85706056125743       4.63316599210236
N         5.21227587815117      -0.52781001259690       1.38373836210876
S         6.31021873043130       0.53554993468026       1.93249634393624
S         5.08573325058582      -0.98483339282909      -0.13870473810103
C         5.63910778086810       2.25007882263310       1.45403123632570
C         6.62585253729155      -1.99033610889439      -0.63103131233604
O         6.18833247907400       0.53782045565836       3.38149040240582
O         7.60837940863316       0.46774758170492       1.27598428647369
O         5.02757967794282       0.09572622992490      -1.13417219380092
O         4.00054646520936      -1.97670500960110      -0.19145425765786
F         6.22504498546852       3.18212816108544       2.24158626838800
F         4.28727714932424       2.32754250247042       1.65152362862673
F         5.88878289750369       2.56077606925096       0.16547511878875
F         6.26037925386310      -2.85671625762124      -1.61536174852722
F         7.09758687855227      -2.70090369764586       0.41316444543519
F         7.59847482497967      -1.19585661927494      -1.10958465220568
