17
C5H9ClN2 optimized with ADF in AMS.
N         1.03060196672925      -0.08011916333138      -0.06153645430851
N        -1.11637061912765       0.11966478909893      -0.02534554192679
C        -0.11851842179454      -0.77544534880656      -0.10716147925084
C         0.76032514636806       1.27318244943268       0.05194007365587
C        -0.59836826596391       1.39686094987999       0.07554319043607
C         2.35199042570411      -0.68996310004242      -0.13057302915424
C        -2.52803762275104      -0.26494075475712      -0.04725980430052
H        -0.34262903940117      -1.91412321592524      -0.21515306710438
H         1.54599822376553       2.01724990418666       0.10623459814921
H        -1.22917805682888       2.27401753000744       0.15418732426497
H         2.21789557507446      -1.77464879252783      -0.21417898338358
H         2.88735499902975      -0.31606376124241      -1.01268660114901
H         2.91636387127797      -0.45663274660684       0.78155261691946
H        -2.99166307840358       0.00153183387068       0.91077243140889
H        -3.03009357974040       0.25332488778411      -0.87373333318682
H        -2.55796794087509      -1.36091373230154      -0.19758630071692
Cl       -1.30117126896287      -3.49463189671915      -0.39868199805287
