36
C10H16F2N2O4S2 optimized with ForceField in AMS.
N         1.74565615143314      -0.03129867461943      -0.51349957930657
C        -0.63211344933246      -0.01174863016559       0.09634171476156
C        -2.07120624862850      -0.02926642039286      -0.42775740070176
C         0.38049788472289      -0.06708316463294      -1.05115525377887
C        -3.07286456534763       0.02839200646481       0.73087563464604
C        -4.50831554816604       0.03123835504040       0.21632663937380
C         2.37366209968184      -1.19942208994777      -0.17699221505788
C         2.36197004747308       1.17260560617061      -0.30598828957368
C         3.65365486482829      -1.18045928271657       0.38197114917255
C         3.64174076570033       1.22707559332244       0.25104650363224
C         4.28857935106542       0.04177548149856       0.59745355737451
H        -0.47083021023890      -0.88534701955558       0.76565975874502
H        -0.46407503229856       0.91759208027840       0.68401549282270
H        -2.23917858665477      -0.95930347220286      -1.01461886718446
H        -2.22951216228991       0.84582624260935      -1.09628824561221
H         0.22567633816723      -0.99444575608074      -1.64724166768629
H         0.21684025135812       0.79059829588337      -1.74177246714245
H        -2.90349801444538       0.95153548839951       1.32747627830454
H        -2.92929102629433      -0.85131685733027       1.39578798748225
H        -4.67603431661868       0.91023181318364      -0.44110749337849
H        -5.21081227194986       0.08795934029654       1.07444007111505
H        -4.71662420379346      -0.89886176768723      -0.35412903588288
H         1.88135653782916      -2.15287727305184      -0.32892015316457
H         1.86033399453945       2.09911296827209      -0.55996019768780
H         4.14528673919056      -2.10615156833840       0.65186069744451
H         4.12399178377588       2.18143518947668       0.41871258083432
H         5.27767251768743       0.07054947967205       1.03580830754770
N        -6.52902807606828       1.10521620962098      -3.35152066706400
S        -7.00354682417903      -0.43802565064602      -3.61631887258565
S        -7.40194915682254       2.11366342533411      -2.40344750571194
F        -8.33836054034230      -0.44178408491519      -4.62708037603262
F        -7.18574876914692       1.69364395606100      -0.79804663564063
O        -5.88561590175939      -1.20382861987684      -4.26465699856737
O        -7.37651018080779      -1.09017073517730      -2.31463674052805
O        -8.86242336444129       2.00211652216537      -2.74028183901728
O        -6.93954213382682       3.52721926688750      -2.61450635575132
