48
C14H25F3N2O3S optimized with ForceField in AMS.
N         1.36169758487306       2.27434774392251       0.04469122515253
N        -0.84184978053095       2.43266747602134      -0.22346582698337
C         2.74575752512881       1.86777924886352      -0.19629276051931
C        -2.17495317156039       2.23397426502993      -0.79235740923106
C         3.01620653287099       0.46111307477788       0.35762107308349
C        -2.41779992176202       0.75426084097546      -1.12474980855755
C         2.07151426279254      -0.58933370177691      -0.24558881258206
C        -2.33988464180335      -0.13541921303806       0.12453097906434
C         0.33656307435541       2.17734737886840      -0.82482172727074
C         0.81412423843619       2.60602962172412       1.23120633902511
C        -0.55105637306790       2.71251609835967       1.06307268535385
C         2.41517876627448      -1.99638783047097       0.25023786257188
C        -2.53878445084580      -1.61057518156953      -0.23549487143966
C         1.42760114332976      -3.02316724750997      -0.29558835385363
C        -2.46044212400819      -2.49223568043163       1.00769665122450
H         3.43255497649147       2.59410873993977       0.28968172595532
H         2.96220311148449       1.88095077454641      -1.28622750975991
H        -2.27202595960551       2.83949327665006      -1.71835301968035
H        -2.95275263881419       2.58382298549482      -0.07838947715139
H         2.90531337182220       0.47247454953907       1.46388013513354
H         4.06770709215665       0.18809181585954       0.11978509559594
H        -3.42701851729657       0.65496383502430      -1.58045714322565
H        -1.67008797232010       0.41679832212233      -1.87542367587876
H         2.14186208773466      -0.55961560112125      -1.35550135252445
H         1.02618171538308      -0.35789129528194       0.04944224684202
H        -3.12170816393826       0.17988775973873       0.85002897163059
H        -1.34617076348841      -0.01975384142439       0.60765060386321
H         0.43590932514723       1.83669880813928      -1.84753815672002
H         1.35620860200197       2.69768420408064       2.16306787812839
H        -1.28106725057205       2.90055577882067       1.83920805942102
H         2.37968956961805      -2.02109487632889       1.36145655718873
H         3.44108094729053      -2.26975088187738      -0.07887509493264
H        -3.53146480268986      -1.75064422560064      -0.71583417290856
H        -1.75210693980541      -1.92862188120931      -0.95419985708385
H         1.45049971892381      -3.03045768801324      -1.40606859912704
H         0.39980718310652      -2.78344340256378       0.04480293628385
H         1.69510015227089      -4.03399814510113       0.07665949755183
H        -3.28058048537442      -2.23645547043102       1.71144140277895
H        -1.48564974455257      -2.35364099080924       1.52215049063973
H        -2.55930594014550      -3.55856195815477       0.71481893079979
S         1.37624835959175       3.36346115596905      -4.93224633051995
O         2.13899242899522       2.71971533180924      -3.76605330927671
O         0.80152961243028       2.15312902840980      -5.68269801605811
O         2.50293804604085       3.84355359318875      -5.85861074863567
C         0.16541899655395       4.63353683038310      -4.46503419692281
F         0.80418498652777       5.65598824820180      -3.79075657216277
F        -0.79756766803154       4.07628253973081      -3.64707165741461
F        -0.43534429761960       5.13880141022304      -5.60179563966797
