60
C18H36F3NO2 optimized with DFTB in AMS.
N        -0.01481284661031      -0.02237609869602      -0.11012956087008
C         0.83373350777705      -1.01127329060591       0.64085606548239
C        -0.88529956569822       0.71863085795283       0.87279485011801
C        -0.84737406249430      -0.78071762994068      -1.11321473183948
C         0.83509939192860       0.99012065098626      -0.84163941004595
C         1.88888921878530      -0.40763025589777       1.56562376592711
C        -1.94174810335993       1.63167663519998       0.25241173475468
C        -1.86257990038284      -1.75682211759419      -0.52760545668460
C         1.81927576586898       0.41024549459754      -1.85294027852339
C         2.59759510636166      -1.53647255429676       2.32573357365651
C        -2.73795517635110       2.31337242640780       1.37082623338529
C        -2.63429364068653      -2.39930853832630      -1.68893703150404
C         2.65346019757608       1.55702496603400      -2.43986831236899
C         3.67937933895829      -0.98090215252633       3.24935958600688
C        -3.80466528587731       3.23722806630473       0.78631428852616
C        -3.70408745274437      -3.36050519823776      -1.17854308532725
C         3.58326414776223       1.04423545500866      -3.53618287210682
H         1.31826012616403      -1.64745119279131      -0.10332552616535
H         0.15251719344418      -1.63101657757378       1.22860151821146
H        -0.21586940494043       1.31447360448858       1.49812819920336
H        -1.36478248809617      -0.03182923446022       1.50691242945330
H        -0.15207481999693      -1.32490632968542      -1.75410446057091
H        -1.36270662490179      -0.03539874545147      -1.72246583412964
H         1.36572749962251       1.56718003746598      -0.08070705273303
H         0.14497886654875       1.65716774210816      -1.36178585040678
H         1.42924919229324       0.27507332280077       2.28488388097948
H         2.63045091803040       0.15187413079085       0.99083572205931
H        -2.62509200209491       1.06248475390879      -0.37976448652550
H        -1.47460079069182       2.39307004811906      -0.37442060332798
H        -2.56956795432590      -1.24092624413633       0.12731051493765
H        -1.36794703218404      -2.53962064166995       0.05569570684437
H         1.28031429450468      -0.07960151637090      -2.66686995986949
H         2.48299658791901      -0.32452439208257      -1.38730577222863
H         3.04948671291914      -2.22875032340428       1.60790923871645
H         1.86364935247632      -2.09563413902049       2.91546419192077
H        -2.05780784590389       2.89297375231453       2.00473431745906
H        -3.21493003836743       1.55261879499044       1.99895839252551
H        -1.93341473989948      -2.93760370487092      -2.33453018824090
H        -3.10197185138885      -1.61272679182770      -2.28831206487734
H         3.23749940976235       2.03127411001237      -1.64310540744451
H         1.97749282901219       2.30413671906019      -2.86578415269099
H         3.24401360591563      -0.30168953799004       3.98323234158273
H         4.43035416691712      -0.43779244687826       2.67466961689655
H         4.16946274220245      -1.79774533241537       3.77852401850558
H        -4.50077131009138       2.67060550375891       0.16733561582030
H        -3.34279392267049       4.00950597337471       0.17092117402623
H        -4.36253980693773       3.71733306070889       1.59026043278610
H        -4.42615193673236      -2.83364010520969      -0.55307711570396
H        -3.25377639926520      -4.16171448716216      -0.59028530140336
H        -4.23325156157533      -3.80346956793128      -2.02184412915539
H         2.99920944197630       0.61980384066452      -4.35306934154371
H         4.25631748825181       0.27697831070703      -3.14906043212677
H         4.18053499105083       1.86747932347968      -3.92775348861628
C        -0.83884737706621       1.53783489939361      -3.71437914413890
O        -1.48351055111448       1.75222634328312      -2.68071547276300
O         0.14231983650192       2.06682741614053      -4.20195843653172
C        -1.33962500077082       0.19222018240059      -4.48202663288882
F        -1.28681573700954       0.22397629853307      -5.81525127477600
F        -2.58970333748841      -0.17722433597615      -4.13760466592865
F        -0.53757989431258      -0.84231445176614      -4.08315445232701
