35
C9H20BF4N optimized with ForceField in AMS.
N        -0.05368694116700       0.24505741320801       0.15754526805716
C        -0.97382487923997       1.23244026488949      -0.49220474390036
C        -0.49527792866587      -1.15108908046687      -0.14808993367294
C         1.31041735029738       0.49023112824454      -0.42097737477081
C        -2.46441110741015       1.01274990162446      -0.17804608991880
C        -1.97446237211455      -1.41811146072185       0.18552688514602
C        -2.88644049211967      -0.41385579041512      -0.51132534174604
C        -0.01695771501720       0.47922776976559       1.62704550239429
C         2.45004931443647      -0.39739493489502       0.13608507107838
C         3.77454136552632      -0.07079420144843      -0.55109195779902
H        -0.86855585654630       1.18741559318916      -1.60163541987049
H        -0.70624354815035       2.27160851419306      -0.19282686248719
H         0.10202607615887      -1.89163614888617       0.42663960340836
H        -0.34186721931452      -1.37736109497908      -1.22843591871258
H         1.60419446271380       1.55317692173145      -0.25453665012494
H         1.28537953507195       0.34618008974897      -1.52632023139796
H        -3.06747136142008       1.71620402231095      -0.79215867662032
H        -2.69056671764727       1.24387605537369       0.88348318270979
H        -2.14048688290943      -1.38517080997390       1.28324009690396
H        -2.24290413853437      -2.44179014179436      -0.15446075408346
H        -3.93553749663405      -0.57484165818254      -0.18149580683482
H        -2.84272794346827      -0.56964016836885      -1.61179175136190
H         0.56771274172562      -0.30457869773446       2.14948724292519
H         0.42833839836850       1.47093231279455       1.86413497013294
H        -1.02352782742034       0.45034530456765       2.08633506340570
H         2.59002097494319      -0.22328926112000       1.22207587240316
H         2.23811783550919      -1.47216722205938      -0.03511827834834
H         3.70084493216281      -0.25756880257861      -1.64381846757602
H         4.04698869725600       0.99249954511626      -0.37868490182142
H         4.57926245178823      -0.71363975053460      -0.13534555955515
B         1.98428347355335      -2.84589844677126       4.40712259451449
F         1.61315792986839      -2.14161049299326       5.58336467659488
F         0.95006072648092      -3.75185941032143       4.05106319428365
F         3.18482468186559      -3.56613317694035       4.64474741738183
F         2.19112999795281      -1.92394003957230       3.34874720216273
