37
C9H20F3NO3S optimized with ForceField in AMS.
N        -0.00271594829381       0.00064994832772      -0.00064752289258
C        -0.85144962855060      -0.25365558242193       1.21582783818653
C        -0.84855039431896       0.26025354491293      -1.21801669416232
C         0.84062428068899      -1.21906030519143      -0.25737155251920
C         0.84852987330338       1.21515270670059       0.25713780793934
C        -1.91348355543194      -1.36229844199768       1.07491866273502
C        -1.90510849493433       1.37388309035561      -1.07755713550505
C         1.89157866490234      -1.08416450440908      -1.37609087025527
C         1.91228591625796       1.06883649945918       1.36359006974563
H        -0.21548801623271      -0.55139353132476       2.07711104067439
H        -1.36916514230969       0.67590143330270       1.53980894051555
H        -0.20972353962059       0.55608654949245      -2.07803965042910
H        -1.36987503005870      -0.66662367916446      -1.54390581196623
H         1.36486160792969      -1.54132342425955       0.66911231872157
H         0.20098243055453      -2.07978317658874      -0.54805827535056
H         1.36493339862457       1.54319944622091      -0.67162199195697
H         0.21426351971395       2.07644461979644       0.55866179214003
H        -2.48107775554170      -1.43306877580828       2.02675657138365
H        -2.64743478986648      -1.14350992221821       0.27514847056975
H        -1.45096388463419      -2.35380395963419       0.89997967737346
H        -2.46926176746684       1.44989661712741      -2.03109652231105
H        -2.64290747838402       1.15645053949165      -0.28096109935441
H        -1.43752862381895       2.36220413374499      -0.89788517950658
H         2.47448629720036      -2.02762682627955      -1.43392552308031
H         1.41812465662274      -0.93221969791930      -2.36634127598133
H         2.61069265245704      -0.26845293724729      -1.17774700419151
H         2.47959734381442       2.02057919693513       1.43862564763067
H         1.45038404481214       0.88833951833540       2.35449678791117
H         2.64720149990709       0.27120581159770       1.13931077627653
S         6.90002833570624      -0.81629281444961       0.68282092740779
O         6.27732141810699      -0.38118764391808       2.01755667735297
O         6.48666024752110      -2.29088254105206       0.56725393442440
O         8.39942132273013      -0.89685252220028       1.00517845554567
C         6.47276461543905       0.21996370528184      -0.74281240939692
F         6.91111925252220       1.51111353372926      -0.52306168945902
F         5.10362142527869       0.22391775431466      -0.91373993287912
F         7.07634293026993      -0.28495467054209      -1.87799233673661
