34
C10H18F3NO2 optimized with ADF in AMS.
N         0.57383153841946      -0.30379665623954       0.16626954671214
C        -0.43353696511814      -0.17223994364117      -0.97572100973293
C         0.22188905799245      -1.52964405275608       1.00133796148229
C        -1.87453247841289      -0.14232623968591      -0.50060476226930
C        -1.21214465161488      -1.49558814100408       1.50475528774591
C         1.93701822474641      -0.51156015709799      -0.48869387442087
C        -2.19580543336986      -1.37709874222455       0.34168068645760
C         0.57715610455698       0.92848217239912       1.00281180979490
C         3.09792958081920      -0.64975613020133       0.47507559022313
H        -0.25707194428845      -1.07505980519808      -1.58987419690063
H        -0.15073751599659       0.73715005547356      -1.52860772734189
H         0.94258604550066      -1.56292504805380       1.83049626136829
H         0.37036685092791      -2.38344371744230       0.31766513329864
H        -2.49722343267671      -0.13119848694463      -1.41076860625809
H        -2.10899620344226       0.78491987939766       0.05347632676645
H        -1.36415734441699      -0.68046110745471       2.23524220651560
H        -1.37513764815314      -2.43826021910633       2.05495848247836
H         1.81332399334757      -1.41772211007712      -1.11110237698759
H         2.07499208304877       0.36212832533966      -1.14615339190337
H        -3.23031823619976      -1.32615837441322       0.71645491230713
H        -2.11178472229074      -2.27364650715969      -0.29308480067519
H        -0.43809638987176       1.12789938999471       1.35826834085503
H         1.24412024125780       0.78358545755566       1.86093219837752
H         0.92704705572532       1.76758415613661       0.38698358624801
H         4.00967222660384      -0.76439781752522      -0.13145160493264
H         3.24449715360401       0.22988701271553       1.11906120912558
H         3.01645153416246      -1.55027543198099       1.09892190597807
C         0.16287723415830      -3.60980256929981      -2.66656848022752
O         0.47990503852114      -2.90507090878657      -1.65287246431192
O         0.85343898036389      -4.21519280042190      -3.48908825614470
C        -1.39369281901742      -3.67950781554244      -2.86542486639115
F        -1.94357000383223      -2.40818367824901      -2.97914043722232
F        -2.02297534766261      -4.26321658274146      -1.78511973437310
F        -1.78589317369176      -4.36540573566458      -3.96431458974141
