34
C10H22ClN optimized with ADF in AMS.
N         0.03410190407573       0.04917384431166      -0.15161820405887
C        -0.99455666902889       0.52408561514713      -1.15431090879012
C        -0.46938670884774      -1.22344711307371       0.52540622807163
C         1.29479309075409      -0.27745973662293      -0.93129660190077
C        -2.37423357339103       0.72944811785597      -0.55032449324099
C        -1.84551554597715      -1.04584843186596       1.13850844429795
C         0.31024952459528       1.10264025123595       0.91600153275647
C        -2.87454273360558      -0.54515342260900       0.12875309910946
C         2.48768628573852      -0.72667174530679      -0.10960543438752
C         0.97140983562756       2.36271325001813       0.39978280615533
C         3.65985655440703      -1.03603221488871      -1.03778999146492
H        -1.03493343814903      -0.25676514052108      -1.93215713248539
H        -0.60499771801459       1.44378868119728      -1.61362278401038
H         0.27073571399419      -1.46561809678585       1.32637923032440
H        -0.48529601651502      -1.98854968980986      -0.26957657945487
H         1.53559225307573       0.62412807914583      -1.51806131645379
H         0.99842667700988      -1.06672541632333      -1.64292274600186
H        -3.04836897233140       1.03328862702291      -1.36884276609076
H        -2.35820833738150       1.56732134836032       0.16674206996463
H        -1.77396939582414      -0.37568350674583       2.01152336957890
H        -2.13521174664209      -2.02803670316966       1.54644964413489
H        -0.66240971115888       1.33934808337934       1.36231378161126
H         0.90408738865961       0.57719239468783       1.70508966293416
H        -3.84644202779570      -0.36188439403944       0.61455617903981
H        -3.03908580259777      -1.32149176123590      -0.64170446083721
H         2.77485981327218       0.04235424110169       0.62337661988577
H         2.23609163813248      -1.60281833270258       0.50776066471116
H         1.06068742296542       3.05230379131275       1.25336572425058
H         1.98958614121719       2.18424176837497       0.02642688066921
H         0.39023310238262       2.88348891137329      -0.37799435835700
H         4.52281179000828      -1.37659930356530      -0.44795072996092
H         3.40772901495511      -1.83319698126634      -1.75610292168156
H         3.97119974966460      -0.14711933761209      -1.61076561317574
Cl        1.51960453232499      -1.03653076428068       3.10869855715707
