46
C14H26F3NO2 optimized with ForceField in AMS.
N        -0.71150148221776       0.31536911849820      -0.15909255269319
C        -1.27740156508389      -0.45043883271982      -1.31779935721342
C        -1.84022202417814       0.72256979484593       0.74121190016229
C         0.28147796432406      -0.50119331720121       0.62424262356082
C        -0.08117218291032       1.55642439111476      -0.73129775290387
C        -2.12958533610259      -1.66630626187780      -0.91447425826676
C        -2.73591643137444      -0.44812117934170       1.19772290504837
C        -3.26807256701088      -1.24234819279435       0.00837442639632
C         1.56155183557656      -0.92311239929014      -0.13761674023172
C         0.65222404279058       2.47033734439843       0.28268699499261
C         2.48735269076648      -1.73465806115835       0.77970959479249
C         1.20970968750826       3.71458759204532      -0.40650149924487
C         3.76297802683558      -2.15335144305840       0.05398716933629
H        -0.48113652358104      -0.78684421366618      -2.01358255759047
H        -1.93433726535820       0.21273364532777      -1.92852712956426
H        -2.49666673233193       1.46580429981862       0.23290100639099
H        -1.45847775895669       1.21239523356466       1.66246903611998
H        -0.18403044002777      -1.43035128027776       1.00592062497668
H         0.58694577185543       0.04752349043131       1.54216897017215
H        -0.85851277460580       2.17741202034923      -1.23486945816221
H         0.63532064865281       1.29055748785388      -1.54056097849605
H        -1.51036603717930      -2.45245218804832      -0.43555134323960
H        -2.56591727875741      -2.11831287021165      -1.83169121321252
H        -3.59832305499085      -0.03851952860477       1.76704978791185
H        -2.18990955578039      -1.12013846094964       1.89192771257821
H        -3.99435356312848      -0.61917127903952      -0.55857053139419
H        -3.80383849612278      -2.14475191986303       0.37472408294476
H         2.12033758504638      -0.03376593735784      -0.49367654953950
H         1.30266168181063      -1.55768951956595      -1.00905985399149
H        -0.03702764142723       2.80976725436496       1.08136382430970
H         1.50600904660973       1.93953467688008       0.75015125735951
H         1.95975338300049      -2.64841023801843       1.13106699838628
H         2.76379683568626      -1.12704320665224       1.66902314167853
H         1.73641518332547       4.34911881229757       0.33730519367516
H         1.93401405129421       3.42795216846687      -1.19585664522253
H         0.38944669635717       4.30891837609335      -0.86223226040201
H         4.32657740495850      -1.25787238703171      -0.28388703003476
H         3.51691379833678      -2.78625481865761      -0.82498837568089
H         4.40781759076973      -2.73896662987681       0.74286785461200
C         2.92853426230015       2.44572463374187      -4.32462022154667
O         2.38584732836536       1.53420403092865      -4.92866159256582
O         3.24542441985892       2.28954317698334      -3.15669670870461
C         3.20575183782517       3.75250523000186      -5.00676877472257
F         2.43765675092540       4.74610752430508      -4.42810409444494
F         2.89994261106227       3.67137436801257      -6.35456385464790
F         4.54409635828351       4.07278163003892      -4.86830777868816
