30
C6H14F2N2O4S2 optimized with ForceField in AMS.
N         0.58858029675463       0.00255776814533       0.01104944176829
C        -0.32214170616259       1.05797968584636      -0.51313590806347
C        -0.28333956692126      -1.08592908416858       0.53065366312109
C        -1.74221202397530       0.68181059407111      -0.12555383364832
C        -1.69565827694485      -0.81497110488241       0.04666326810949
C         1.43970033031946       0.54524296960936       1.09641579398315
C         1.46243165047583      -0.51026449275652      -1.07142702732623
H        -0.27881191324732       1.13382736829338      -1.62505073748968
H        -0.08167013688469       2.07448345198575      -0.12405702123552
H        -0.30484392632079      -1.10640869710862       1.64566996428757
H         0.04355604836842      -2.10047205334308       0.20482285138003
H        -2.47772196768873       0.98059880591751      -0.90391648993010
H        -2.00818787574122       1.16223347225864       0.84211411484049
H        -2.45828898706319      -1.16788870963047       0.77407087010788
H        -1.85913546442043      -1.31145672455572      -0.93538603293880
H         2.10048736736339       1.35596203972300       0.71541363635222
H         0.81593229830816       0.97078470886174       1.91503943625560
H         2.08342664543184      -0.25178279233003       1.53103303327214
H         0.85697365868354      -0.95658241760484      -1.89267555835700
H         2.08044663218336       0.30849621570764      -1.50326068502602
H         2.15060832011089      -1.29700308784018      -0.68861061934621
N        -3.10660043316338      -2.08057747683967       4.35586281749004
S        -2.64973504689817      -1.26437376412922       5.69763101698741
S        -4.41366044270160      -1.61851904577780       3.48801384206062
F        -3.80133882995494      -1.47769353926311       6.89468472326855
F        -4.11424527956127      -0.12780382851858       2.78647686377058
O        -1.32495769673928      -1.78585592952957       6.17597870750834
O        -2.53389023408995       0.20191692271719       5.39023646249947
O        -5.60995359762541      -1.49920648455887       4.38959680086478
O        -4.68926862349514      -2.63408626259975       2.41632857503361
