33
C9H15F3N2O3S optimized with DFTB in AMS.
N         0.12744307786741      -0.73215462886233      -1.08977051382993
N         1.92444875762804       0.37656428346170      -0.67779459378991
C        -1.01077482190547      -1.63087026092127      -0.93040375840442
C        -2.25518986175214      -0.85049696724402      -0.50335222833610
C         1.07028399413761      -0.51388445640609      -0.17800015603506
C         0.39855672596392       0.01323164487059      -2.20632159027711
C         3.16765917306081       0.79284550994256      -0.03682736499533
C         1.53667422661402       0.70808917238479      -1.94977848851280
C        -2.09529912180951      -0.23237319591637       0.88382515227702
C         4.35212838588482       0.06789681572215      -0.66799871915708
H        -0.73908036586952      -2.37630517916365      -0.17886544709578
H        -1.17652320513569      -2.13030134801969      -1.88766637282405
H        -2.46748743785944      -0.06792971446463      -1.23882179135413
H        -3.09651252509553      -1.54868019401780      -0.49824177697266
H         1.11878551258366      -0.97347590408548       0.79501277320425
H        -0.22726441419117      -0.01787911028450      -3.08091568067999
H         3.26189198532462       1.87726347126745      -0.14896860068426
H         3.08680830501278       0.54737789835278       1.02523794509216
H         2.08717555733822       1.40558669055872      -2.55615113403097
H        -1.27652048858250       0.48870648605432       0.89133371308032
H        -1.88493831427646      -1.00586716551488       1.62274852336274
H        -3.01233160434384       0.28277234417833       1.16804981375675
H         4.21379044753593      -1.00939739755250      -0.58585645294340
H         5.26317359221597       0.35375812868490      -0.14480932107797
H         4.44523920997658       0.33489239837968      -1.71994614000516
S         2.02979646261263      -3.55462055557092       0.33419828605788
O         0.83959816432586      -3.12810376327373       1.06516299912246
O         2.98595611945936      -4.31555938350769       1.08958566593058
O         2.59052665954502      -2.48492594824415      -0.49214487287291
C         1.34162102313007      -4.72207534185669      -0.93205150769305
F         0.45560627843892      -4.06136779447384      -1.69725548735866
F         0.70550023077628      -5.74067674155059      -0.37068149170999
F         2.28574895638880      -5.19974219092718      -1.73037955714347
