49
C13H21F6N3O4S2 optimized with ADF in AMS.
N         1.86006245270146       1.93608205588353       0.39339527462141
N        -0.09855513351581       1.62875745864978       1.27108803546385
C         3.86700968363877       0.83460725286906      -0.53324675218019
C         3.17111034760094      -0.48459534328718      -0.85780650993260
C         2.93696326255157       2.04233960431973      -0.59678050628158
C         4.10379367490308      -1.69237059351060      -0.79350424987350
C         3.40348779265157      -3.00337285255336      -1.14541443215300
C         0.59727917690604       1.59086563644007       0.12603533108626
C         1.97480470053209       2.22780285307277       1.73303311921839
C         0.74405492960449       2.03311962610263       2.28852628511919
C        -1.54382105165341       1.37641784905219       1.40040933089893
C         4.32911095922095      -4.21363625670205      -1.05295966050210
C        -2.38026704624499       2.53628448275566       0.88836061189672
H         4.68901415253907       1.01633862857366      -1.24714792217481
H         4.33030113703674       0.78021020065112       0.46856235392983
H         2.72372628356658      -0.42088392722573      -1.86789574617152
H         2.33493328798281      -0.64549051427672      -0.15248411006492
H         3.45067211741388       2.99246134835068      -0.39090914580482
H         2.45045730946634       2.13825294987571      -1.57813967271519
H         4.53477714022042      -1.76972039152202       0.22268485684858
H         4.95561454583519      -1.53782328040052      -1.48178070611953
H         2.99011976880121      -2.92814169907145      -2.16799082165674
H         2.53904491427784      -3.14554692621033      -0.47083189148863
H         0.18295054659917       1.42659605350680      -0.86212802019860
H         2.89852234285668       2.59757713041233       2.15871260155375
H         0.38944889786103       2.17382608448808       3.30141290343214
H        -1.76126619200592       0.44455984391341       0.85536643586157
H        -1.72076518998515       1.18123641015472       2.46828601100337
H         4.72574805176235      -4.32989454047357      -0.03144385232243
H         5.18839623874998      -4.10469969183863      -1.73440641820840
H         3.80367616605708      -5.14292495641596      -1.31855012446493
H        -2.10713283066582       3.47484258100315       1.39020445444352
H        -3.44241813319729       2.32527553234429       1.08244700863658
H        -2.24374121693189       2.67663911469088      -0.19213435088934
N         0.82896578657849       4.38702154538066      -0.72356600209542
S         1.58449307054393       5.59642635345902       0.02560226241466
S        -0.48396892287142       4.50969861857188      -1.64302148085886
C         0.47171095231468       6.12726365575458       1.47099244669608
C         0.02039160771100       5.37879209507116      -3.25228300009413
O         2.73079803404798       4.98544980465005       0.70333698874795
O         1.76091474981080       6.81230433267652      -0.75383861254605
O        -1.56602868727466       5.32205390037763      -1.10073611702875
O        -0.77195691633839       3.13698655119543      -2.08513967128344
F        -0.49202717211630       6.97444867202728       1.07441490459409
F         1.23675604973373       6.74528612179383       2.40341374381846
F        -0.11624603705522       5.04660224899090       2.06390754011720
F        -0.87980802881880       5.05108034131746      -4.21184567972782
F         1.24737925978561       4.96480880106200      -3.65445082443153
F         0.03015429861151       6.71421297554942      -3.10791355593370
