41
C11H24BF4N optimized with ForceField in AMS.
N        -0.22129364950385       0.30352130250907      -0.16409404454538
C        -0.91644000239717       1.28432714155004       0.73310258058341
C        -1.11553954282442       0.00832701663664      -1.33052145306505
C         0.11574831228470      -0.93915757974372       0.61473981202646
C         1.01352081061808       0.95577016756135      -0.72407406553803
C        -2.32766250304175       0.84373261686392       1.17567636767782
C        -2.51164308346175      -0.50293037295845      -0.93811903296355
C        -3.20996279958039       0.49572567858020      -0.02028725995095
C         0.90712598324757      -2.02168724590381      -0.15929711665785
C         2.13550441365418       1.26999941898478       0.29707025264767
C         1.20897030283497      -3.21833043817089       0.73999960024669
C         3.30035637357176       1.99417559393817      -0.37630995087687
H        -0.32981624767346       1.46155752941656       1.66059275425918
H        -1.02030710784194       2.27054911590595       0.22495754601899
H        -1.27000014844172       0.93222511316926      -1.93484511634732
H        -0.65044806871672      -0.71864668259469      -2.02913630257362
H         0.68990644714388      -0.67191142500304       1.52872124294265
H        -0.80151121576003      -1.42407096831917       1.00113761193984
H         1.44883049119273       0.33096268343116      -1.53569560622634
H         0.73922282814108       1.91251980150929      -1.22098665700882
H        -2.27436712379906      -0.01722895305767       1.87411329904240
H        -2.80319118581902       1.67769426929580       1.73709796774143
H        -3.12110630888175      -0.62578550818351      -1.86029057480320
H        -2.45440187786720      -1.50131310081875      -0.45790936664023
H        -4.16754737903830       0.06064763455658       0.33956379292380
H        -3.44714833737166       1.42223164624678      -0.58917092616600
H         0.32150153895504      -2.39525088807367      -1.02309799703504
H         1.87573320265447      -1.62593792912554      -0.52619720750115
H         1.76085755903491       1.92145178853389       1.11168726666792
H         2.53784337476057       0.33623154422887       0.74028443903682
H         1.77058111092093      -3.98502858788202       0.16505028450262
H         0.26433456640907      -3.67399120259683       1.10693375692993
H         1.82590728407708      -2.90358091906080       1.60871264024897
H         4.10718309639209       2.17253006902111       0.36574317682276
H         2.96856589193513       2.97551976049733      -0.77514092659239
H         3.71217875563405       1.38129776866810      -1.20630251294327
B        -0.08332327961170       4.62285526673268      -2.27229810194821
F         1.31620387677574       4.38455943591623      -2.30232055901778
F        -0.49622254675050       4.85264524940375      -0.93269512833748
F        -0.76826900625941       3.49247806541621      -2.79209232857919
F        -0.38436432989626       5.76252721191882      -3.06406878414164
