52
C14H18F18NP optimized with DFTB in AMS.
N         1.35515777170352       0.23280159158536       0.23859708573805
C         0.85149580299803       1.48934372199988      -0.42123547492554
C         0.61429857029879      -0.95583478003747      -0.28997820027180
C        -0.65848015642747       1.65798678951421      -0.32467595132471
C        -0.89684297234072      -0.81871274244325      -0.14930167429396
C         2.81375700490650       0.11488371731168      -0.13208128104475
C        -1.39061339593354       0.43429231367026      -0.86965762314603
C         1.22028126020482       0.34130252722767       1.71591232782568
C         3.58638482851202      -0.97826094594288       0.58376766044423
H         1.16423541835189       1.44453931042073      -1.46705987085421
H         1.35357524488466       2.32853488622949       0.06105473174783
H         0.97151553905621      -1.83583421071975       0.24851603783324
H         0.88226963835502      -1.05321176347362      -1.34568674599930
H        -0.92131496551833       2.54233789385742      -0.91027011009060
H        -0.95995747009595       1.84549925723406       0.70946525288124
H        -1.18197901209848      -0.78685142272448       0.90581556960290
H        -1.35118267276662      -1.70924700675704      -0.59123023042420
H         2.84984788536968      -0.04280928666632      -1.21166208087092
H         3.26305069720857       1.07987185907103       0.09509561959980
H        -2.46658925103817       0.54729618965855      -0.71948702388479
H        -1.20321481321856       0.33777937174588      -1.94373272688300
H         0.20003700281564       0.61248170148485       1.97285191343683
H         1.46660609380524      -0.61575249890106       2.16975172405775
H         1.90423647736270       1.10915525402997       2.06972134347336
H         4.59400595946582      -0.97213382117686       0.16868006469768
H         3.66377322372482      -0.78289635239491       1.65168697216265
H         3.15192172746486      -1.96477327573530       0.42676042896159
P         5.44783763490704       3.48690441184582       0.39282391987325
F         6.21829886876067       3.61110863138562       1.85570578826215
F         5.71223919368630       5.09414001253716       0.05667996387424
F         5.10804983230313       1.83518505974907       0.70474251427525
C         7.20010122408519       3.01852554996503      -0.33199421894915
C         3.76529106543103       3.96792697635115       1.37705656067796
C         4.45584778256044       3.26443065788794      -1.38431003204380
C         7.89775458991576       1.72026660050344       0.16481277823595
C         2.79915198499528       5.08860935179364       0.85099086143702
C         4.61962125868665       2.05114493862207      -2.35619167321097
F         8.04919773581214       4.02405467251085      -0.08058297942244
F         7.10030825868317       2.90552743650920      -1.67394339430575
F         4.07900052301347       4.32374492509711       2.62645422362235
F         2.98312952277776       2.85228436558792       1.50704085131549
F         4.57154341478302       4.36034962743425      -2.14331966561257
F         3.13872960728646       3.19014658588469      -1.00841385535994
F         9.15412465562942       1.67923257661187      -0.28172144700256
F         7.27497873116040       0.63166079417038      -0.29002132253852
F         7.93437687944600       1.64769396166955       1.49043850398197
F         2.63410128803841       6.03311572121361       1.77181389878260
F         3.21590124892273       5.67441648913215      -0.26036185780259
F         1.58433782551050       4.56590621427963       0.60008678526359
F         5.33512911000846       2.34915888605899      -3.42394549044921
F         3.40537127325231       1.64370300206168      -2.78728023477544
F         5.16529864779333       0.98686193526910      -1.76138914327793
