38
C10H20F3NO3S optimized with ADF in AMS.
N        -0.01625635084144       0.62256573371856      -0.22832172944561
C        -0.99888418256051      -0.44710340703648      -0.64531502997876
C        -0.65348616151133       1.16512708664638       1.04327524363313
C        -1.39551141262597      -1.14342606186143       0.65385268901642
C        -1.21011864216269      -0.06717301815712       1.75754878903102
C         1.34215215650875       0.02760334250246       0.11593968241960
C         0.09557898133132       1.68588108080564      -1.29583663375183
C         2.08247267805752      -0.59065995135322      -1.05444683408605
C         1.06559393444902       2.80077249519071      -0.96253767880692
C         3.41597596369589      -1.16103630265749      -0.56559775558757
H        -0.54078392021790      -1.09245263902113      -1.40435540786649
H        -1.85287099450232       0.08386506434534      -1.09493671857329
H        -1.45212786911499       1.84653727402500       0.70984432158451
H         0.11359471686213       1.71187653027440       1.61169924058469
H        -0.75365377354166      -2.01636864489114       0.84211319386860
H        -2.42995571444980      -1.51024633349610       0.58424374323649
H        -2.15900564875533       0.18315386973790       2.25321528035700
H        -0.50053733105313      -0.39291479279773       2.53241067016140
H         1.16701543350569      -0.70378152748561       0.91599552543160
H         1.90845935372622       0.84411566941014       0.59019831834741
H         0.37767296884384       1.16661558307826      -2.22413553091483
H        -0.92656367109722       2.07488940814892      -1.42609046163675
H         1.49249647968760      -1.39801446213514      -1.52126075943027
H         2.27934020516904       0.16249181099579      -1.83564922437797
H         0.85310809639977       3.26220980506331       0.01089942060610
H         2.10741947780517       2.45548449021075      -0.94111975435125
H         0.98009375995139       3.57294044405996      -1.74270341052663
H         4.04654633557888      -0.36832255929396      -0.14053601650770
H         3.25794909062096      -1.91242509054392       0.22191002912982
H         3.96151971456022      -1.63599081095338      -1.39426353816938
S         2.28692779130530       1.49802372140413       3.35577671214014
O         1.70540921572575       0.14271973205677       3.23422138602273
O         2.08166117562812       2.18980719579957       4.62633641419223
O         2.09357357666086       2.32832851786489       2.13293003829269
C         4.13707282520223       1.16729245781708       3.31582514048607
F         4.50592025638016       0.58551253112274       2.12956352082307
F         4.51248920081164       0.32713678379502       4.31323093966682
F         4.84994245296683       2.31578988221014       3.44389564627974
