41
C11H24BF4N optimized with ADF in AMS.
N        -0.88882517049665      -0.25300720576129      -0.09590146812651
C        -1.31973423964620      -1.37424300718664      -1.03100782155352
C        -2.06724481060565      -0.12715179911320       0.84410871978335
C         0.34920364091694      -0.67202507347976       0.68306594476950
C        -2.09932014280643      -2.35614747814972      -0.15750525955243
C        -2.54493745796337      -1.55705305453632       1.09352609736180
C        -0.66147886431009       1.01756841066615      -0.88509759194508
C         1.62167456497665      -0.72019666605163      -0.14433335068575
C        -0.26488415951030       2.21868761020284      -0.04353167800641
C         2.72376343135068      -1.49150242810888       0.58538760078659
C        -0.09275093850761       3.44195295251697      -0.94575005999557
C         3.98000418060250      -1.60045012535504      -0.27599900022082
H        -1.94111377452327      -0.90995103068972      -1.80765656998816
H        -0.44230267658454      -1.80077562362848      -1.53156664818670
H        -1.76540647296947       0.41918917283982       1.74643139581870
H        -2.82438396274370       0.45880957118704       0.30218689441591
H         0.11895129602010      -1.66791670263593       1.09049056394064
H         0.43847636966262       0.02557038665393       1.53012803051856
H        -2.95408659506081      -2.74991976118586      -0.72450453833514
H        -1.47779957267034      -3.21823109989707       0.12457795443768
H        -2.09678007955131      -1.96846170646236       2.00977429412058
H        -3.63525244942723      -1.56938292726171       1.23283519361284
H         0.07946963280505       0.77407654233111      -1.66380092053132
H        -1.61593022173654       1.20997730351732      -1.40098913597590
H         1.44064397278421      -1.20618277635808      -1.11497095554114
H         1.97521764399447       0.30019238640880      -0.36644072484414
H        -1.03154989381940       2.43236992194601       0.72121377886852
H         0.68218901631597       2.02576795737964       0.48657660178059
H         2.96324784923342      -1.00524227348266       1.54921361676514
H         2.35646318567533      -2.50642785220475       0.82292145176464
H         0.68030039591221       3.26011738223761      -1.70719362415241
H        -1.03066639280746       3.68371018814228      -1.46962939955753
H         0.20239227377556       4.32081610900892      -0.35519777229216
H         4.76337492330655      -2.17925532813701       0.23553040516984
H         3.74654392245120      -2.09531576835116      -1.23146686512927
H         4.38725251879149      -0.60358062122356      -0.50730315401652
B         0.58461433588093      -1.39853188263069      -3.82072447647023
F        -0.82988240858217      -1.45326782646598      -3.96590091675712
F         0.93822427194560      -0.10941648196818      -3.27199642279486
F         1.24416177766888      -1.61584169280232      -5.02751093405881
F         0.97700033495219      -2.39476109681044      -2.84245338459737
