71
C21H29F18N2P optimized with ForceField in AMS.
N         3.07430692394703       0.90762193530457      -0.01434403885987
N         2.93561861659432      -1.30825426922155       0.12724078520248
C         1.50490752759638       2.80237221438252      -0.21352002791112
C         2.86411059852627       2.31657782787737       0.31281494487726
C         1.05608288859476      -2.66115892556875       0.99500196910340
C         2.54756521427998      -2.62815878447953       0.62314915661099
C         0.33287754494315       2.12978295865415       0.51835942121866
C         0.15490549324432      -2.31382841997991      -0.20074603992578
C        -1.01464686719116       2.55820219016947      -0.07234621295008
C        -1.32524023255197      -2.31573979963159       0.19682438311775
C         2.86706462346094      -0.14374513344754       0.80202369879130
C         3.29298599490518       0.39093433275978      -1.24054828498155
C         3.21439593303183      -0.98308315399404      -1.15155783666264
C        -2.17541642084441       1.90857911058268       0.69080720075291
C        -2.20522044958217      -1.86118789366013      -0.97442182458981
C        -3.51742534422810       2.23876460047658       0.04527387547105
C        -3.67814882962836      -1.82376013450426      -0.57893235397877
H         1.44066162824333       3.90254036097018      -0.06709491054994
H         1.43781888677628       2.59904586493448      -1.30470246753431
H         0.86944200462561      -1.94550865666486       1.82521908272114
H         0.80377050475075      -3.67999366021353       1.36136526836364
H         3.67631203777297       2.92193831168588      -0.14443295776728
H         2.91490216623313       2.46555929984330       1.41397207404528
H         3.15731582191032      -2.87549095264766       1.51862678942148
H         2.75166652131489      -3.40196221252718      -0.14929563857805
H         0.37053286859123       2.40130772115803       1.59631190838523
H         0.41740845659259       1.02609421061754       0.43064080168267
H         0.32123378048276      -3.05228420359462      -1.01549963298823
H         0.41641711520321      -1.30415862279209      -0.58365725447160
H        -1.11132862938335       3.66485656567715      -0.01675970436206
H        -1.05724916393032       2.25100185261353      -1.14083653569318
H        -1.47652957691755      -1.62734143796403       1.05721747361079
H        -1.62170593060773      -3.34132478022429       0.50874852918372
H         2.57962548720250      -0.05846503052233       1.84297140648819
H         3.43705655758233       0.97097777241706      -2.14273569949495
H         3.27845871821851      -1.68559175182952      -1.97221621020382
H        -2.04827556679943       0.80529678378394       0.70304247070503
H        -2.18031210704957       2.27121336288547       1.74179388837369
H        -2.07869497307270      -2.55937394743296      -1.83041452526630
H        -1.89856317595459      -0.84391532838173      -1.30329858961819
H        -3.67877627524269       3.33768455486322       0.03017188661618
H        -3.55168216578213       1.84656331241423      -0.99358145765453
H        -4.33592012396066       1.76644021226831       0.62843688713839
H        -4.28633451435863      -1.48759105520984      -1.44506164944035
H        -3.83520284633824      -1.11352984704712       0.26059177099877
H        -4.02132493055329      -2.83523601868521      -0.27413274362641
P         9.48292185976750      -0.69773661647498       0.18386503396542
F         9.70854758275088      -1.03473174737984      -1.49233687325870
F        10.31334815001807       0.75991004129839       0.57808390141297
F         8.46971530522092      -2.01807594004430      -0.25275995637422
C         8.36783569993895       0.69919894164734      -0.55260154728448
C        11.28234597534554      -1.39948635577579       0.05932521298785
C         8.93857247464722      -1.26539225579124       1.93769932350038
C         7.06892295752058       0.22864226396134      -1.24065309734629
C        12.14922538174549      -1.37354340694784       1.34358295248991
C         7.44555138987596      -1.14967253112469       2.30162286866454
F         9.09372880927116       1.40303004115737      -1.50665220624338
F         8.01823151099858       1.60847890330140       0.43338648400060
F        11.99311794388283      -0.68121989514633      -0.89758570359251
F        11.21502668651797      -2.71924472610893      -0.36154456683280
F         9.64403518558415      -0.52339162590060       2.86821904918998
F         9.27819741750887      -2.59805995837295       2.10317498206507
F         6.41128492882070       1.33021307097291      -1.75875835212572
F         6.22430794170375      -0.38716770973617      -0.34500338583384
F         7.33251308956427      -0.64031481475337      -2.28354738753848
F        13.44938343106534      -1.70613112777853       1.00478055364179
F        12.17633148165797      -0.12247767673373       1.92976069274680
F        11.72045961262797      -2.30176926921975       2.26960510717108
F         6.97810750546493       0.13655259186309       2.14088752573633
F         7.28948042896246      -1.48565333484228       3.63502085022111
F         6.67858955459039      -2.02933634568568       1.55980910306542
