31
C7H16F6NP optimized with ForceField in AMS.
N         0.14360579132227       0.28706039169113      -0.06958067539275
C        -0.46367797378652      -1.01979350328012      -0.44120000284372
C        -0.95338096697266       1.07322412260350       0.57227527664050
C        -1.96865433982413      -0.84568694118590      -0.43522881329686
C        -2.20163955324735       0.20402814196205       0.61787632726763
C         1.26508623599537       0.11345114390796       0.90347587032477
C         0.61289085213600       0.99875689409330      -1.28671965134998
C         2.46072907830455      -0.69119759848195       0.36813017616935
H        -0.21975768910065      -1.81238547794871       0.30347244277579
H        -0.12250479002915      -1.39260408924987      -1.43425754026842
H        -1.19798566959259       2.00363123441686       0.00815334036517
H        -0.70656784698497       1.40818672511090       1.60598507062514
H        -2.49558295689609      -1.79414533685103      -0.19100975548083
H        -2.31091535675159      -0.47047758901139      -1.42504382562969
H        -3.12390580070494       0.78963265907223       0.41284152515052
H        -2.28469028341731      -0.28138214085277       1.61603209570683
H         1.64522632661328       1.10835120799927       1.23039793997981
H         0.89395287384795      -0.39927903664368       1.82098730529880
H         1.35429158843422       0.39629026886714      -1.85427745009984
H        -0.23344381695143       1.20038706335941      -1.98115251234068
H         1.08280539063214       1.97180739570441      -1.01985465064663
H         3.14295679604709      -0.92492262013473       1.21185587596924
H         2.14114854448771      -1.64929523593174      -0.08992739245666
H         3.03706211524655      -0.09895958778507      -0.37260607848537
P         7.31223971799266      -1.09133441176229       1.10643850157662
F         6.89211497881049      -0.97863954195990       2.76899491995791
F         6.98724579442272       0.59478451534639       1.03824065355362
F         8.98018504220395      -0.83638565443351       1.43141578229477
F         7.69924281302623      -1.08387896153576      -0.56772296019175
F         7.58993380832358      -2.77647658793709       1.29594037004712
F         5.70196194061263      -1.48324644904906       0.65666437627958
