43
C13H27NO2 optimized with ADF in AMS.
N        -0.02855195958756      -0.33349863519282       0.14262793587183
C        -0.11113485907836      -0.86817076729494      -1.27862247178402
C        -1.46582077431792      -0.35425098970609       0.60392694081576
C         0.82000162242386      -1.22569019882404       1.01573271057375
C        -1.39765145866869      -0.26228266585225      -1.83918493484144
C        -2.28029134926805       0.08968042702143      -0.61046579430579
C         0.51547136540821       1.08563360941905       0.07391559139798
C         2.26313035849717      -1.32869457252645       0.56953014943408
C         0.72265500814956       1.77803590223888       1.40684768244288
C         3.03932049527771      -2.30903883932664       1.44476964210151
C         1.35391306309164       3.14738734062496       1.13528090663170
C         4.48958659920372      -2.42668134781552       0.97883225061911
H         0.82654090319622      -0.57573229976937      -1.80719449763952
H        -0.18872064458379      -1.96289163016989      -1.18386454094437
H        -1.68936704915578      -1.39731761542363       0.87639158194470
H        -1.57337869408848       0.28041063510607       1.49304111709749
H         0.32531829213109      -2.21177162711888       0.99062020953915
H         0.73511621068472      -0.83668702897947       2.04285568923994
H        -1.17386248811411       0.63608859438867      -2.43300618618088
H        -1.89073114929111      -0.98109155241352      -2.50820668338713
H        -3.24861034831926      -0.43127920737614      -0.62504791565993
H        -2.48953238061810       1.16861664677274      -0.57188938232137
H         1.49568105282855       1.02966286510786      -0.44918157151507
H        -0.18948505811981       1.64836302451140      -0.55524369517903
H         2.30939327531900      -1.65256760002633      -0.48378676679687
H         2.75213174835943      -0.33913792126766       0.57243954089283
H        -0.21547808632954       1.89515765606882       1.97901487733001
H         1.42289571812853       1.19503110787701       2.02703967355162
H         3.01223535224915      -1.97577967928505       2.49897627070038
H         2.55622427091190      -3.30409904745373       1.41958181929224
H         2.29119301079672       3.00855761633664       0.57445755727930
H         0.68229518928320       3.78263401935136       0.53549581249583
H         1.56763790549550       3.67301291459265       2.07743497960347
H         5.05875617291625      -3.12771372441699       1.60800312440811
H         4.53325831588606      -2.78303762971739      -0.06235429153685
H         4.98501264487383      -1.44404150485967       1.00874332149263
C         4.64531402015549       1.05762534652892      -2.76243438977968
C         3.40221480052523       0.77998355758784      -1.90842800916362
O         3.39021073907350       1.28641560840483      -0.74255063330239
O         2.50085650758853       0.04740362038011      -2.42676156865422
H         5.09085813679500       2.02687231992311      -2.49767422357281
H         5.39666481629810       0.27790286568523      -2.55753131136637
H         4.40565556079269       1.02123602988891      -3.83414182322490
