52
C14H18F18NP optimized with ForceField in AMS.
N        -0.37208613533655       0.37818829393006       0.07706107628117
C        -1.42507609696016       0.62839699316048      -0.94620606763523
C        -0.84434194865224      -0.80280753735098       0.85819318547003
C        -2.68665868946716      -0.07502241612772      -0.49016928238223
C        -2.17309130416589      -1.26459469914424       0.27660753266436
C         0.92568946015137       0.10092498653884      -0.61294767348194
C        -0.26057480607308       1.57093569552819       0.95640413736892
C         2.14036164520753      -0.04572797013631       0.33274909445633
C         3.35489385680638      -0.58416577039323      -0.41919349510550
H        -1.14968655422528       0.20166675975355      -1.93947541470327
H        -1.62417272884608       1.71214399019345      -1.11404671364912
H        -0.99915423893225      -0.56106427211461       1.93533847083195
H        -0.13063448093241      -1.65327391769143       0.82970147143122
H        -3.32125777352076      -0.38408993955473      -1.34917150861274
H        -3.26791021192649       0.58961808812412       0.18618803167488
H        -2.88685165939618      -1.57795362451131       1.06889565217878
H        -2.00265533569372      -2.11307703381386      -0.42340069304490
H         1.15329148537912       0.92163165244759      -1.33198167217819
H         0.83190696932234      -0.83274061782426      -1.21609974318775
H         0.16219236149842       2.43722145619661       0.40011623288961
H        -1.25747650473317       1.86803327318460       1.35359576672070
H         0.38960637358141       1.36805199812293       1.83519223370427
H         2.41177201783991       0.94536237528870       0.75473447464562
H         1.91471277762047      -0.73237485628784       1.17448753034910
H         4.22297915392842      -0.64763457136776       0.27021340314939
H         3.14360229314103      -1.60007063135649      -0.81653477195394
H         3.61777531013206       0.09133287833815      -1.26125516830266
P        -1.35717944643805      -7.37948988712939       0.83984662012625
F        -0.80792676204933      -6.33624088760298      -0.41385982557095
F        -0.14973081067081      -8.51794012165292       1.30528759709200
F        -2.59039385194584      -6.18100776495725       0.77970503005251
C        -0.09449664445849      -6.27199888582342       1.81010753446948
C        -1.52861432036212      -8.37061241410830      -0.81503400266305
C        -2.72857342005868      -8.15886535070586       1.95735162813201
C        -0.33633173243116      -4.73822741757532       1.81231188160953
C        -1.95028920921544      -9.85062182203416      -0.70962207145425
C        -2.91762532943082      -7.55071805282360       3.36169473526807
F         1.17476901283954      -6.46168822201209       1.27676050850077
F        -0.03721629662058      -6.68220997878284       3.12668942853836
F        -0.30891384248954      -8.37636348434588      -1.48663673901481
F        -2.46541681206407      -7.73830010480545      -1.62064870283306
F        -2.42734746266565      -9.49357966077287       2.16229190130093
F        -3.95266234236723      -8.11042004278723       1.30351260094755
F         0.56953952984642      -4.14847868814994       2.67608126178814
F        -1.60255344750649      -4.40283815449013       2.24221758468983
F        -0.12916730553025      -4.19489355185712       0.55757714732764
F        -1.85627516189279     -10.42700376711367      -1.96470995747489
F        -1.11933601433089     -10.55603292755747       0.14035222856459
F        -3.26144316786318      -9.97624825025694      -0.29637929323658
F        -1.88436937728261      -7.92476590645913       4.19983983502316
F        -4.09115449792559      -8.04039801754117       3.90790655646330
F        -3.01268602923339      -6.17731439018738       3.32469517397461
