37
C9H13F6N3O4S2 optimized with ForceField in AMS.
N         1.11222113193792       0.37269278138039      -0.37058379224779
N        -1.11085534306548       0.36646275033953      -0.37432976366128
C         0.00312902061690      -0.23955004203168      -0.82819910498944
C         2.49589090047464      -0.01380025237932      -0.63247347996661
C        -2.49129632776208      -0.02820221678758      -0.64097415583676
C         0.68676465299806       1.40263879200112       0.38916039419505
C        -0.69378444799149       1.39842303079679       0.38749106341640
C         3.09595545021037      -0.69737156439256       0.59064734860031
C        -3.08960669910133      -0.71644284737911       0.57933039152749
H         0.00650794783334      -1.11920175281755      -1.46000797046445
H         2.53691633002350      -0.71616412587777      -1.49352000294065
H         3.09248739666872       0.88667349365501      -0.89391457731907
H        -3.09281942232710       0.86926625694105      -0.90166084005591
H        -2.52614517414292      -0.72972533340132      -1.50272786530825
H         1.33084431739017       2.10470985735969       0.90293683172291
H        -1.34328652502752       2.09593433906356       0.90085128290720
H         3.09150764318076      -0.00648326349297       1.46000586732574
H         4.14304044091669      -0.99681697418234       0.37508058500981
H         2.50852445416580      -1.60596734230764       0.84315502609918
H        -2.49713306047865      -1.62074539459635       0.83529143702143
H        -4.13539701828127      -1.02038607357280       0.36428143807922
H        -3.08833902380040      -0.02327983280090       1.44428350249764
N        -1.86967428745233       0.22572936134111       5.84348449836163
S        -1.70230810520847      -0.37047228092193       7.36106877178969
S        -3.21251651925102       1.02347412206188       5.34576540249659
C        -2.25425619784937      -2.06383801884263       7.38940416857619
C        -2.90793878971107       2.77622433068530       5.41212981909105
O        -0.25173392280067      -0.32799018309173       7.75008773686244
O        -2.50859228340780       0.43602453156227       8.34154559225650
O        -4.39228483653190       0.68443593902121       6.21456213139195
O        -3.51306268130058       0.64247951796699       3.92503480802190
F        -2.09335035242916      -2.58219493057398       8.66025383815830
F        -1.50844055847440      -2.80712866706723       6.49414840701647
F        -3.58852520129230      -2.12609139125057       7.03522142928327
F        -4.03846927789641       3.45826393833251       5.00431211659625
F        -1.85469312723862       3.09397863705850       4.57534366381117
F        -2.59202029999453       3.14438077920105       6.70605858217441
