31
C7H9F6N3O4S2 optimized with ADF in AMS.
N         2.32412993376502       0.11730357006863      -0.32248151946113
N         0.96277504345878      -1.02176238970385       0.92357632188707
C         1.90375186030103      -1.11834918813558      -0.02257481421772
C         1.65682258693744       1.02267933203723       0.47969482812043
C         0.80637109229247       0.30582645429395       1.26610935376440
C         3.43947108977803       0.42896966721995      -1.21200098361449
C         0.36901566904720      -2.15157633443187       1.62890867276226
H         2.32684405183852      -2.03151701272557      -0.42844539329932
H         1.86155281477746       2.08493949277914       0.43666708136097
H         0.13050161998234       0.61709256256220       2.05241364124291
H         3.70727016103900      -0.47580282388079      -1.76756904467200
H         3.14003216135499       1.22942704401356      -1.90033629087538
H         4.30251673134800       0.73397000004299      -0.60483113199995
H         0.49564646728881      -3.05257478283503       1.01916958588200
H         0.89141464333071      -2.26362844073172       2.58899446334083
H        -0.69980929838497      -1.95591171197357       1.77853206791117
N         3.85342282308555      -1.83998085997728       1.74251538936270
S         5.08974425445739      -2.17232858319614       0.76903220909071
S         3.94910710015960      -1.25828621971135       3.24436438717919
C         5.98892823429195      -3.69861380751827       1.43791089998850
C         4.69221988715390       0.49185519095068       3.14219082909549
O         4.47499829163131      -2.65225956619133      -0.47679080129299
O         6.11689484680539      -1.13825558374462       0.69889423857408
O         4.85194379015177      -1.97571962198791       4.13072922662209
O         2.56460441502916      -0.99974215881970       3.64449692599195
F         6.70998025761153      -4.24035680562207       0.42691016609441
F         5.10147691453174      -4.61872587242583       1.87951604157725
F         6.82467557935960      -3.36849379343054       2.43726719294314
F         4.28050246201348       1.19180013335299       4.22574876104579
F         4.25547266609902       1.15155531552313       2.02928127040343
F         6.03423163386378       0.46939371189860       3.12879632729220
