49
C15H28F3NO2 optimized with DFTB in AMS.
N        -0.82215589282853       0.66931981565751       0.24097128275279
C        -1.83122980495124       0.65750882416422      -0.87865138170303
C        -1.37144361673922       1.46030976525317       1.39807230227282
C         0.40092152430455       1.36573704012907      -0.30263703785215
C        -0.49652721693013      -0.71674207115713       0.71724579156619
C        -3.20437632733113       0.16232689153013      -0.45021340576686
C        -2.74809596580800       0.98998475445976       1.85220118373723
C        -3.73933431489309       1.02143792508715       0.69201807180789
C         1.53991335654812       1.56001814418100       0.69238129618430
C         0.21531853688431      -1.60982610213603      -0.29725616119954
C         2.69238533081436       2.28530131029365      -0.01629434559254
C         0.34275426054961      -3.02633042444362       0.27808748825267
C         3.86153118753852       2.51966415466430       0.93667416701194
C         1.07020572756721      -3.95065611714412      -0.69576206124730
H        -1.42475203126770       0.04016410543062      -1.68150310997114
H        -1.91117413256646       1.68895048036883      -1.23989909349348
H        -1.43797467094183       2.50105910382679       1.07544220157443
H        -0.65725393345226       1.38278769678545       2.21978986955304
H         0.06973500735660       2.34013660850198      -0.66862951128421
H         0.74190118533328       0.78544433702873      -1.16257353036809
H        -1.43673426504898      -1.18612728958714       1.01242487084439
H         0.12287936262825      -0.61144141371613       1.61144729950361
H        -3.17525592370556      -0.89303315623489      -0.15939858376326
H        -3.86110969286071       0.24895268415384      -1.31973979608576
H        -3.07473357184458       1.67933107284744       2.63512300143459
H        -2.69763188525040      -0.01246868101461       2.28927664272521
H        -3.85451933029075       2.05359871871569       0.34655069750056
H        -4.71168662290152       0.64776977883679       1.02069276742570
H         1.89561342154244       0.60118309173150       1.08161770032040
H         1.20939455333980       2.17263108651399       1.53464002589410
H         1.21427737208954      -1.22420561911299      -0.51498371188318
H        -0.34444501535178      -1.65347012482627      -1.23481113553635
H         2.32946671626203       3.24608142207203      -0.39233934807383
H         3.02776253212490       1.68947608340819      -0.87172712201550
H        -0.65527064775626      -3.42597928032301       0.48618289693729
H         0.89225707051238      -2.98572944505871       1.22437881106783
H         4.24686146999204       1.57132629674200       1.31484087289719
H         3.54637482192994       3.13029144013969       1.78341924107868
H         4.66513432461104       3.03855148680036       0.41453546707717
H         2.07491822228986      -3.57806262626498      -0.89831596095800
H         0.52653957850061      -4.01636213427953      -1.63884704260890
H         1.14900342071076      -4.95016927898320      -0.26885359580177
C        -1.65333837307630       4.14181584814729      -0.70458116147214
O        -2.61073397729881       3.93994632505013       0.03709408604226
O        -1.26656121521694       3.55479143508822      -1.71671842236482
C        -0.60772920906235       5.24669447067304      -0.16818060475068
F         0.39521954348050       4.55227866697507       0.45759675542464
F        -1.10033464608423       6.09302340919880       0.74121526395461
F        -0.01983057095190       5.97427057392595      -1.12357323574899
