58
C16H22F18NP optimized with DFTB in AMS.
N         2.21640482370505      -0.81244908766202      -0.35837682951935
C         1.97706528616712      -1.23050114056988      -1.78583277253911
C         2.78008538809891      -1.96350933631449       0.43211346230622
C         3.25123031125217       0.28366239041983      -0.40612718631345
C         1.14752137855011      -2.49976744377086      -1.92178420593425
C         1.96428008365079      -3.24311403212429       0.30957990865161
C         0.94081779394877      -0.35572146858563       0.29149863808126
C         1.79746987525303      -3.64651611058390      -1.15255423829423
C         3.69813347300111       0.80574300461966       0.95884112480252
C         0.35591849912838       0.93633565407519      -0.26014540880476
C         4.47792533693882       2.10867791444836       0.77917766183624
H         2.95676698052882      -1.39342176997653      -2.23427368656247
H         1.49809602056972      -0.39383632326097      -2.29712201932081
H         2.83239574851467      -1.64791895464966       1.47571008979032
H         3.79142553066965      -2.13340914002475       0.06544269822040
H         2.83441425853771       1.09174348145068      -1.01119104939231
H         4.11072451451210      -0.12807158199969      -0.93852260868294
H         1.10737909369635      -2.74085812563741      -2.98717721320510
H         0.12116815593885      -2.34011903246841      -1.57709845738778
H         0.98670525414686      -3.13045730808992       0.78853376529770
H         2.51464477303265      -4.02020996740656       0.84540494334241
H         0.21650564591991      -1.16327524825028       0.17273431598256
H         1.14377717545401      -0.23911281018902       1.35836406112761
H         1.17503300413054      -4.54118628930749      -1.22213522888287
H         2.77657811833660      -3.87145159032550      -1.58368974415652
H         2.83890115998886       0.99270800352743       1.60848317532022
H         4.34118984961475       0.06809758423181       1.44543474566852
H        -0.60448395816946       1.09567019888608       0.23020237040154
H         0.99194111515048       1.79277095454218      -0.04476917621459
H         0.18396181638996       0.88214753770386      -1.33340374679152
H         4.81900470067003       2.46427490036013       1.75063843793282
H         5.34660427831615       1.94947549375761       0.14275142911846
H         3.84623998613462       2.87448311693736       0.32751166359928
P         6.31221175544775      -2.94545757448600      -2.12448093611968
F         5.55404555598054      -3.94050649927034      -3.22370941996497
F         7.81485908819564      -3.56971218637659      -2.43833007096108
F         4.77443037779860      -2.21813628100591      -1.77523224960457
C         6.49463185285174      -1.73286389458748      -3.65790870645513
C         5.94876738243227      -4.39843241872160      -0.79344699796144
C         7.03854217817379      -1.73403728567809      -0.66508697571344
C         5.20772293184543      -1.05404972938622      -4.20529273340168
C         6.96745679787039      -4.83056298807082       0.30739660094996
C         7.31641243567730      -0.20759217199796      -0.72418399546973
F         7.01262798185337      -2.42871481398391      -4.68056788258597
F         7.36040560734887      -0.73811404858044      -3.38426446858723
F         5.71498478999367      -5.52532662000216      -1.48309165891186
F         4.79979233218707      -4.12586387332665      -0.12001524174707
F         8.16130544824463      -2.28671946428328      -0.17790554937941
F         6.09022917252766      -1.83624889169150       0.31352720904374
F         5.45567065791938      -0.41911328209485      -5.34746559415692
F         4.72666306142116      -0.14437969089082      -3.34149179736668
F         4.23036798211660      -1.93073122077260      -4.42963525152453
F         6.61377559949096      -6.03705328860286       0.76298318784129
F         8.20644153804003      -4.92189918570767      -0.15473323189476
F         6.95696385916105      -4.00367489855853       1.34975792731445
F         8.46436379600429       0.09107442288052      -1.30505728097541
F         7.34676899295910       0.29215437356495       0.51732615809777
F         6.32527714288072       0.43366324416789      -1.36341614804323
