55
C15H20F18NP optimized with ADF in AMS.
C         2.76265262187686      -0.44009732099951       1.82088742609709
C         2.17402017468378       0.68125977951215       0.96244694581078
H         1.75590372158934      -1.34297779430820      -0.74158722431869
H         0.24163226392640      -1.87690111741931       0.06991761325946
H         2.73326304026468      -2.51481069586879       1.06432691772258
H         1.41271067175522      -2.14175068329935       2.19206032470174
H         2.62859438998207      -0.24853026357559       2.89525913512674
H         3.84062403126344      -0.50805394410446       1.61880614353994
H         1.98213523516815       1.62827775569890       1.48599867898977
H         2.80038320675972       0.87180302653165       0.08463236134720
H        -1.11574994879513      -0.22642762468404       1.12988935843512
C        -0.20633684532030       0.28067862847716       1.46929735758284
H         0.14754314773081      -0.18175014115917       2.39787951922464
H        -0.40860938684123       1.34592529731271       1.63673873824521
C         0.47853033361307       0.89705373032355      -0.83919872641403
H         0.37421424300921       1.94580465327942      -0.51887547984644
H         1.35624342745093       0.82039922603826      -1.49617107837959
H        -1.61912453527994       0.27432840476485      -0.88172758535140
H        -1.68038736962865      -1.84049611492156      -4.06269342286001
C        -0.59952370405991      -0.77943398885597      -2.50205946038869
H         0.29962906129502      -0.62902689646906      -3.12126501720186
H        -0.42028437674029      -1.70210512592180      -1.92976904289978
C        -1.81946831164326      -0.97633655317767      -3.39672393523056
H        -1.98928944820207      -0.08969775545496      -4.02810349380385
N         0.85245219718657       0.14583037045835       0.42740128673324
C         1.17625888144295      -1.31635147133869       0.18650970660542
C         2.02980301923054      -1.73204819889327       1.37803273118867
H        -2.73170940487946      -1.14929776017727      -2.80253156027297
C        -0.77216529131415       0.42718271800281      -1.57377046829968
H        -1.07039030228251       1.28932664612075      -2.19797889351209
P         4.36564749069079      -1.05039588363003      -2.57700489349109
F         4.15086618825820      -1.42979186935744      -0.94223223257227
F         5.98856302800239      -1.34264547815925      -2.52876057561237
F         2.69361485811587      -0.73816321222410      -2.63331850324674
C         4.11081029676709      -2.99916499447596      -2.85176570960967
C         4.76880899714287       0.84211198782350      -1.90071193746468
C         4.42238872843954      -0.42327836335240      -4.49286300800403
C         2.71981001154201      -3.67432060526546      -2.64091310152253
C         5.86829607722626       1.80182620542075      -2.48358172341798
C         3.88730800018716      -1.16770248937717      -5.76448913071087
F         4.93788242444306      -3.67244075789992      -1.97718576733085
F         4.50544205712996      -3.37034744737264      -4.11535095442884
F         5.17838023630018       0.71716998681393      -0.58121442445209
F         3.61128718120919       1.61898218504094      -1.85871816584653
F         5.71687717517743      -0.09102955553487      -4.81472307010770
F         3.67846810133741       0.74583764498019      -4.48066987868091
F         2.80956520698895      -4.99966866082571      -2.92460805129702
F         1.74734111822879      -3.15423105977141      -3.42244090194496
F         2.30970737542213      -3.57312784444099      -1.34260751665948
F         6.01004986756536       2.85505757150975      -1.61718888015575
F         7.06160085509750       1.18221408415240      -2.57391131298245
F         5.55028123123620       2.33127093477690      -3.68013112066166
F         4.77007207931872      -2.06752097879366      -6.24368732935894
F         3.68133322374063      -0.25263475540804      -6.75535852514822
F         2.70201589049045      -1.78009432022118      -5.52751615732321
