41
C13H24N2O2 optimized with ADF in AMS.
N        -0.72597275364067      -1.30830841561587       0.65922779208161
N         1.41380809436124      -1.34146530808323       0.39582669829132
C        -2.03785744000827      -0.87331640499457       1.15040151945443
C         2.83121241127667      -0.97886822759647       0.54979274424819
C        -2.56585099605173       0.32756848468058       0.36732530873683
C         3.28727470306911      -0.07656604221047      -0.59384589688100
C         0.43159834723021      -0.84054846774849       1.16119057984703
C        -0.47906152150516      -2.10507725000662      -0.44308155640707
C         0.87619176043913      -2.12691285909141      -0.60804092834766
C        -1.69089022136042       1.57357021912029       0.49806232243637
C         2.53133365119506       1.25146952488347      -0.63046517724029
C        -2.30556563690910       2.78562919151903      -0.19522969991952
C         3.07329521939862       2.19976358256886      -1.69496029797853
H        -2.71898999506266      -1.73598940036980       1.08712827374851
H        -1.89834655713673      -0.61060870927176       2.20984074290438
H         2.89155972473703      -0.42564854356989       1.50533744067556
H         3.41295702629985      -1.91260185062404       0.59995142022873
H        -3.57946662139253       0.54195692603296       0.75265009691362
H        -2.68531182893497       0.05122122191579      -0.69735875480347
H         3.19592746159476      -0.60202435022742      -1.56433757481019
H         4.36470784366981       0.11475374355494      -0.44099611162338
H         0.48052839911314      -0.08370285778122       2.05596907537056
H        -1.27230642150268      -2.59602808657266      -0.99444151521881
H         1.49369944796665      -2.64199387599927      -1.33383977255582
H        -1.50698522737812       1.78457238221980       1.56614886778821
H        -0.69480580383103       1.37561305476288       0.06636418823557
H         1.46110248806472       1.05663376900028      -0.82482558066369
H         2.58642031714212       1.70914407824567       0.37297717440947
H        -3.28860691028125       3.03363341138955       0.23686849368089
H        -2.44917967875962       2.60222764217578      -1.27269297128299
H        -1.65874550506162       3.66956070446596      -0.08636396846722
H         3.00178233400579       1.75825270616710      -2.70310156880855
H         4.13347559649463       2.43611712574146      -1.50729587047659
H         2.51650251761047       3.14914485754188      -1.70199006362188
C         1.39334166753157       2.72354362420003       4.28495105248780
C         1.36368574237012       1.57198173855996       3.28178245281431
O         0.23460151995375       0.96903374856049       3.15665755239545
O         2.42699106926480       1.27855969839167       2.67473934409254
H         1.58461337467496       2.30885700939956       5.28770856427809
H         2.20396692710802       3.42422328269908       4.04568410046540
H         0.42651837184433       3.24528471816612       4.32067393632177
