52
C14H30F6NP optimized with DFTB in AMS.
N        -0.42378724880069       1.40203810809599      -0.17040286704379
C        -0.01892351784288       2.43719661090447       0.85726413958292
C        -1.09984241616354       2.17511207481229      -1.27373710679271
C         0.78609199856286       0.72161909263355      -0.73823393645036
C        -1.38096182708691       0.42619463032769       0.45176306184675
C        -0.21985308997018       3.81237650090861       0.22019763925303
C        -0.44105934629068       3.54261453382611      -1.26518726101403
C         1.52359006005753      -0.19336973760760       0.23874742698567
C        -1.92556513384933      -0.61539329168865      -0.52114709371963
C         2.84947763514126      -0.64498906156448      -0.38549077116932
C        -3.10151971589231      -1.34511909824104       0.14015005076330
C         3.60288129184022      -1.59387697014039       0.55215998627914
C        -3.68103125957637      -2.41380853634206      -0.79056630644618
C         4.92584016428752      -2.04549135907591      -0.06308669506001
C        -4.87496954948530      -3.11569871176385      -0.14619442751753
H         1.01969320058753       2.26422576458729       1.13983622674793
H        -0.65140123491523       2.31443825463881       1.73580902217663
H        -2.15580445462032       2.26256117898437      -1.01950645833621
H        -0.98887415938354       1.64275197747221      -2.21780282169772
H         1.45413684822338       1.51261233226580      -1.08926181988831
H         0.45812540994440       0.14004575802904      -1.60313540047080
H        -2.20626961468530       1.01956014146905       0.84562223579997
H        -0.86785001847860      -0.05287158612782       1.28810208328883
H         0.64339487277688       4.45568898221873       0.39602418488172
H        -1.10707461036730       4.28537056180195       0.64506888503172
H        -1.10510539471201       4.28315727418747      -1.71147541177471
H         0.50459948351880       3.53223167247940      -1.81458611451606
H         0.91635085327089      -1.07434883683273       0.46158576570654
H         1.72563525929299       0.32445518336430       1.17995854571357
H        -1.14844756893470      -1.33508648939207      -0.79780401163615
H        -2.28079877967960      -0.12906944980273      -1.43281927340318
H         3.47030067784238       0.23223235137932      -0.59668505075214
H         2.64957508880029      -1.15049972243586      -1.33623531448305
H        -3.87709334552057      -0.61377575811776       0.38644095354862
H        -2.76520533968701      -1.81000153283102       1.07303500550308
H         2.97877570520268      -2.46922789469807       0.76024840741888
H         3.79608518723778      -1.08642030934323       1.50309836675459
H        -2.90660260166259      -3.15158703304987      -1.02922870349801
H        -3.99713039105281      -1.94485309470899      -1.72830340885720
H         5.44296832546667      -2.71822576078002       0.62080534540871
H         4.75095410718061      -2.57120071495452      -1.00259570289611
H         5.56917124562939      -1.18690265000547      -0.25957359963286
H        -5.27326216323311      -3.87176267905263      -0.82300405254776
H        -4.57654600806042      -3.60269703279218       0.78323210545929
H        -5.66390796731764      -2.39666735344151       0.07618317590350
P        -4.19712172482651       3.24612188033310       0.78463420249212
F        -4.32537197420683       4.62734244214301       1.63234062983973
F        -3.25286826742572       4.02447685133013      -0.35426510516497
F        -2.77114655427349       2.87785815299889       1.61861333022565
F        -3.97711141869664       1.82099970163330      -0.08797034056279
F        -5.04452194964612       2.41544710279060       1.90048222677949
F        -5.53249874621978       3.57179245657487      -0.07801713475984
