38
C10H22BF4N optimized with ForceField in AMS.
N        -0.89442716507828      -0.16033889035066       0.04965721018513
C        -2.03105900189307      -0.26973142374851      -0.91503537463285
C        -1.21685001197496       1.03069165060487       0.89472323282184
C         0.38002466296314       0.07088928011222      -0.70571577777017
C        -2.85186497595548       1.00187539538512      -0.83101506206809
C        -2.63352141444942       1.47360584917719       0.57906003067306
C        -0.83127980743131      -1.38475813408769       0.91175904160136
C         1.64501472410623       0.16359044626892       0.18275448430160
C        -0.48156518755420      -2.67997520231766       0.15623849616531
C         2.86421772386550       0.58419953368589      -0.64648936144564
C         4.12356591432695       0.63820582538429       0.21350925728842
H        -2.71700052912345      -1.11154351874458      -0.66200508869585
H        -1.70088898774765      -0.43732190996374      -1.96604321841397
H        -1.12040511731164       0.83283131023086       1.98707297491596
H        -0.55258890160303       1.89719243208902       0.67174370436963
H         0.54120393698968      -0.73684319995274      -1.45408643486027
H         0.29308542812330       1.01149776093686      -1.29788513281946
H        -2.45814237900674       1.75535416161360      -1.54868303989807
H        -3.92874182094309       0.81623561484946      -1.03692582269583
H        -3.35016157695723       0.96713668179037       1.26294447308302
H        -2.75367539025546       2.57583576790577       0.66271133679988
H        -0.09283632488393      -1.25268104131041       1.73288350150129
H        -1.81139991514830      -1.54003473298688       1.41903048626845
H         1.49717997112449       0.89744389301025       1.00250371247017
H         1.86130735771887      -0.82520674882861       0.63760069949642
H        -0.59931782815900      -3.54513092056221       0.84202023334531
H         0.57247057757778      -2.67142841534425      -0.18809124038517
H        -1.14846211654990      -2.83978666473029      -0.71550022992088
H         3.02494811305755      -0.14272103943172      -1.47234062067426
H         2.68856235297643       1.58914862283177      -1.08854505340685
H         4.34004166087689      -0.36117477975439       0.64748866975775
H         3.99530370161283       1.37425506199062       1.03482790903116
H         4.98758588453289       0.94715076844476      -0.41190640264092
B         5.77597619645295       3.96868256222802       1.63600652339716
F         4.56064845504454       4.67868881444421       1.82602497101382
F         6.87398660797824       4.82260650602800       1.92218893377544
F         5.85999487880306       3.52701823331127       0.28888792432589
F         5.80994098649484       2.84712605269100       2.50691022734022
