36
C10H16F2N2O4S2 optimized with ForceField in AMS.
N         1.72781394893864       0.02348194957353      -0.44614032192234
C        -0.66326160564415       0.00391837284266       0.13375467367488
C        -2.09254064270775      -0.01780857898360      -0.41941972688511
C         0.36827942765533      -0.01517138007584      -0.99882103531652
C        -3.12066072021485       0.02467511555527       0.71627819279963
C        -4.54550969306137       0.01037319030965       0.16998280028231
C         2.32673300021283      -1.13732913279769      -0.03883024110411
C         2.37898421816401       1.22053115872023      -0.32250545573943
C         3.61311779401818      -1.11836342235370       0.50540100320297
C         3.66418462494091       1.27551637738176       0.22154130385046
C         4.28370499654743       0.09710104337964       0.63553198848363
H        -0.50590571157649      -0.88091595279889       0.78890695367348
H        -0.51532013908160       0.92291643484675       0.74272704458655
H        -2.24172614055508      -0.94394055894484      -1.01739745171659
H        -2.24377542145275       0.86106067676116      -1.08447173231695
H         0.23601829278389      -0.92956943209866      -1.61966496313451
H         0.19874504968058       0.85680690385147      -1.66990943441127
H        -2.97575509069851       0.94819041238776       1.31837329378590
H        -2.98072677091169      -0.85514337758414       1.38156023658718
H        -4.71827622825721       0.89450740504634      -0.48007534550485
H        -5.26769353324055       0.04311530282231       1.01278159794203
H        -4.72461086169506      -0.91628507009624      -0.41583577086934
H         1.80853691753784      -2.08485850888095      -0.12992527626001
H         1.90222604044213       2.14242031324057      -0.63412684427533
H         4.08347503667247      -2.03856831727745       0.82732306799767
H         4.17232419871856       2.22553889033619       0.32563342716327
H         5.27804494457187       0.12662280834538       1.06099734064420
N         4.37657728733296      -6.29545432058257      -1.27881195430615
S         3.15048396618304      -5.24858356770847      -1.56067685939572
S         4.29911138138071      -7.85428496606210      -1.76925648865976
F         2.00807378521593      -5.40437635086940      -0.34678504950885
F         4.34341346282249      -7.91000309777014      -3.44220227934348
O         3.68435082667905      -3.84497828383936      -1.56130641889519
O         2.50364519535115      -5.54425264534122      -2.88473762184128
O         3.01639622854697      -8.47670322860256      -1.29462503667791
O         5.46691877160010      -8.61523782363285      -1.20952540848945
