26
C6H14BF4N optimized with DFTB in AMS.
N         0.19366455623157      -0.45588234380355       0.17217903338197
C        -0.82324373894443       0.62429848940915       0.38849427141213
C        -0.62058638745694      -1.67133116836538      -0.15492937111423
C        -1.95695119796141       0.32294127746704      -0.58791020902262
C        -1.80164339967623      -1.15700408606436      -0.97004127979925
C         1.01509788551746      -0.67216747368896       1.39043743997585
C         1.07851981745354      -0.10718951228591      -0.96658589938074
H        -0.35385896063331       1.59646763409987       0.23374477420413
H        -1.17119891924516       0.53986578087863       1.42012427440967
H        -0.95544637323601      -2.09970381549572       0.79219975581558
H         0.00384093788881      -2.39050811548793      -0.68663668891717
H        -1.90205135525160       0.96389486089663      -1.47102869730759
H        -2.91154452329919       0.49273760223094      -0.08904182980577
H        -2.69579138876150      -1.72291301671255      -0.70566276043818
H        -1.62227730262401      -1.26656893380846      -2.04260085989207
H         1.55573725700398       0.24535971769970       1.61585927770567
H         0.35470199070891      -0.93116663268337       2.21713823833567
H         1.71447104514887      -1.48461724622374       1.20090005184024
H         0.47337397560276       0.05666110745572      -1.85564806161931
H         1.62974552170676       0.79943769103041      -0.72255776616714
H         1.77491123887419      -0.92623726755021      -1.13901847788760
B        -2.05378613588093      -1.29457156058201       2.98370040774048
F        -1.29134079535638      -0.13287766698259       3.27443037865058
F        -2.91413964604455      -1.60918745607184       3.98864254273702
F        -1.12007558575724      -2.33666948613368       2.73435033724468
F        -2.73153165230794      -1.04896854312779       1.76009485129800
