50
C14H15F18N2P optimized with ForceField in AMS.
N        -0.66142647443764      -0.83606611960366       0.33195817822019
N         1.53230494479310      -0.47858393063916       0.28003502532139
C        -2.06605571152844      -0.76112829949409       0.73115600119161
C        -2.90445586522342      -0.03283058741287      -0.32697563720073
C         0.38060004180541      -0.22907420105911       0.93245285472466
C        -0.15077999494855      -1.49975082420725      -0.72526911540847
C         2.85808458208923       0.03382943413086       0.61675305426200
C         1.21041677749757      -1.27596688123009      -0.75872154455252
C        -2.44131731866666       1.40864762153631      -0.53487163720021
C         3.29556819369063       1.08029575029839      -0.40091841674470
H        -2.15999117555938      -0.23071952040872       1.70472607344123
H        -2.46116954104899      -1.79037442703638       0.87039162931594
H        -2.85196240418764      -0.57957697260219      -1.29308738926825
H        -3.96584883913184      -0.02431332224248       0.00223758348119
H         0.29899549518542       0.39927339294569       1.81125225889342
H        -0.72559182807015      -2.09213136737599      -1.42519605110045
H         2.83985429645018       0.50108963944736       1.62561328413122
H         3.58832462401506      -0.80335916890889       0.63666578712042
H         1.91052392281104      -1.65813057668758      -1.49026330163015
H        -1.40747899039056       1.43107443596479      -0.94052158320900
H        -2.47134063900426       1.96716662676113       0.42486995883028
H        -3.11234543781838       1.91318949059974      -1.26135561443623
H         3.38073024628570       0.62590113477646      -1.41054797684405
H         4.28328523501545       1.49607395404084      -0.11161980364005
H         2.55394071231938       1.90603563231244      -0.43073745995480
P         0.52076812929366       1.30452296670458      -5.74853106614699
F         2.09534521416900       0.62984563376968      -5.56440141440093
F        -0.61581812610425       0.52672553489611      -4.71154064704889
F         1.53429876504000       2.40562033682495      -6.59807422654476
C         0.99206039278516       1.98828658997279      -3.99700843469427
C         0.54467754281296      -0.33899823724616      -6.77667136242289
C        -0.78396131720567       2.36119400584183      -6.70187726339930
C         2.21360225673812       2.94106188534644      -3.91929526293884
C        -0.78500370130901      -0.79410235306541      -7.41838137733062
C        -1.00661971504276       3.81303099201884      -6.23941036834965
F         1.27183282620309       0.91759787015759      -3.15724746053225
F        -0.08540639523850       2.65279205605281      -3.44384940901344
F         0.94318429029438      -1.39352931389990      -5.95923249770999
F         1.46830077029538      -0.21336639370905      -7.80512871648021
F        -2.01422526805797       1.73829384370430      -6.59534653303595
F        -0.44965655379583       2.40475028642080      -8.04756830743785
F         2.38057254437868       3.34866277416924      -2.60837215282888
F         2.03239419938688       4.07199823663278      -4.68448226319119
F         3.38036354770120       2.31285204800171      -4.31512285704805
F        -0.60542981688651      -2.05517970391794      -7.96034011267650
F        -1.79721988577486      -0.87872883305540      -6.48080504934462
F        -1.17030209153995       0.03939121043142      -8.44881366219010
F        -1.57554045034086       3.85361028408889      -4.98254373705239
F        -1.88983052025787       4.42330852004911      -7.11306227730858
F         0.16111840771329       4.54413093250443      -6.25304629641682
