38
C12H22N2O2 optimized with DFTB in AMS.
N         2.15050044447618      -0.83905293094300       0.38035710551598
N         3.17942452731789       1.04911315286987       0.64627121333898
C        -0.09899768528701      -1.80910547825690       0.19559386347180
C        -0.75738016225777      -0.52736203350053      -0.32306386943359
C         1.37141474959761      -1.91104567001808      -0.22139621352589
C        -2.22868233622208      -0.45149044953621       0.09637624093123
C        -2.88417603443475       0.83514789946431      -0.41549089767448
C         2.51256930840073       0.30337722803285      -0.23310934443513
C         2.60652875399640      -0.81388143986485       1.66683989487345
C        -4.35117516974460       0.91607858473004       0.00257562597809
C         3.26247070730564       0.36735435834269       1.83118683649587
C         3.87622290944538       2.26348105008332       0.34537177263062
H        -0.16556634586498      -1.84612891424748       1.28711810038059
H        -0.62222087201474      -2.68189884711016      -0.20516312674283
H        -0.68452283599262      -0.49800884043433      -1.41563000319431
H        -0.22091980448225       0.34258170775962       0.07104152485031
H         1.47427122962106      -1.83462702499210      -1.30704434542827
H         1.79431469025266      -2.86311825203444       0.11049923293203
H        -2.76527345183065      -1.31967494244666      -0.30082957536330
H        -2.29660465283080      -0.48791395558785       1.18901977866944
H        -2.34337176529111       1.70100116851017      -0.01857061320058
H        -2.81372597992054       0.86891601774632      -1.50786658269438
H         2.29871883642813       0.56494482699679      -1.25370944396406
H         2.44269131995616      -1.62990304879091       2.34874663419519
H         3.77629403513729       0.77271995736034       2.68484346048588
H        -4.44023385106292       0.90417826597463       1.08967295775947
H        -4.79520919874294       1.83814211177478      -0.37248256599791
H        -4.91080972197785       0.07126978047785      -0.40098033458110
H         4.95658691433889       1.96645235951688      -0.06617577981367
H         3.34355918230178       2.81342052572457      -0.42784312801753
H         3.97926635782347       2.86131569634986       1.24777290356063
C         5.59583211871906      -0.60570394301071      -0.78254397992076
C         6.67077937382188       0.52704226637645      -0.96546183440543
O         7.74384146782386       0.20061952646591      -1.43942340705966
O         6.30093014416094       1.68087364212080      -0.59114530265064
H         6.01265093709913      -1.55780170057632      -1.10547707307012
H         5.31219775597610      -0.67248156059618       0.26772057801545
H         4.71221032385737      -0.37302848933132      -1.37798885991139
