39
C9H16F6N2O4S2 optimized with DFTB in AMS.
N        -0.96535035834648       0.06009714236430       0.06172219845167
C        -1.98000743957895      -0.90583009235115      -0.47376656812546
C        -1.69184452694281       1.37241617682608       0.05130122655605
C        -2.78862515726436      -0.12908721263382      -1.51145072833750
C        -2.52420211406718       1.35613266570479      -1.22536042634545
C        -0.53083579083626      -0.26766561811138       1.46251356498039
C         0.21025241998888       0.12518463370734      -0.84257043821350
C         0.06056970908806      -1.65798350044633       1.61671901530147
H        -2.61010583953965      -1.21031093956439       0.36233083044634
H        -1.47270007427007      -1.77847113107009      -0.88471843153441
H        -0.96998987137088       2.18804013454315       0.10237200761651
H        -2.33996371375224       1.39461547875906       0.92977661843327
H        -3.84708220493847      -0.36846991062725      -1.39441228573748
H        -2.48309522114004      -0.39361500879261      -2.52571099047077
H        -1.98497882512220       1.82931112464737      -2.04913424612978
H        -3.45537427475590       1.89953372883211      -1.06087427588967
H         0.19199307913971       0.49841136099801       1.75551437961737
H        -1.41903256890166      -0.17699325000776       2.09249169808166
H         0.67641696432583      -0.85616081765381      -0.89570849357028
H        -0.11702888503128       0.42615141916303      -1.83513394228239
H         0.92006263642653       0.85193262373100      -0.45076377224355
H         0.22301968659360      -1.82331829413946       2.68136854865813
H        -0.63031899335994      -2.42071230552483       1.26341231166654
H         1.01161830210613      -1.76185129574383       1.09577918563632
N        -3.53167134879983      -0.43581469828456       2.34892384397919
S        -4.84938494282266      -0.16774112159244       1.46936265188565
S        -3.48282115930410      -1.69771115466328       3.34707066342984
C        -6.38158320127368       0.02273112986234       2.53458130793513
C        -3.69908262650234      -3.29790952345390       2.39096366058220
O        -4.65158033285887       1.14304052312271       0.88296309070512
O        -5.14353183133128      -1.25004224353095       0.55160894730062
O        -4.52621063869432      -1.71102793221227       4.33606495505257
O        -2.10632137636224      -1.76726623729480       3.78305176114131
F        -7.28049341220422       0.68781650003139       1.82821408518292
F        -6.09330279837349       0.70997082221145       3.62257041234120
F        -6.87242548577288      -1.15316003646247       2.86063049539708
F        -3.19918011338672      -4.28758926781969       3.11075807617020
F        -3.00349259945919      -3.22647788926401       1.24945547900377
F        -4.95709718950449      -3.55565867285900       2.11372486032769
