42
C10H12F18NP optimized with DFTB in AMS.
N        -0.41316717320327      -0.71182577352600      -0.18366568237714
C        -0.06346686296660      -1.43971706538008       1.06725045486712
C        -0.42848659505263       0.75021705239206       0.08105114253268
C        -1.76360427569752      -1.14031532146325      -0.64426905663064
C         0.60262132945380      -1.00714881215072      -1.23296041126138
H         0.91847433460213      -1.11211369252249       1.40293742947593
H        -0.81271100226261      -1.21775160386462       1.82476497137417
H        -0.05041965406103      -2.50727516968399       0.85979203103518
H        -0.68927492301680       1.27150249185319      -0.83811206367587
H        -1.16682790995023       0.96466325618216       0.85149700268092
H         0.55903433280523       1.06145242801312       0.41671683934637
H        -1.98158360652461      -0.65976625808392      -1.59548199090200
H        -1.76879507323785      -2.21931063342405      -0.76684443398424
H        -2.49903523797802      -0.84939637619412       0.10323362150013
H         0.31079764089781      -0.51014512310789      -2.15551230388749
H         1.57150095405816      -0.64241905867120      -0.89726309034145
H         0.64562878277951      -2.08016079102154      -1.39154142489754
P        -0.39296891122579      -5.15812268848796      -1.81430387888594
F         0.54767317823157      -6.01095898354408      -0.73172761596951
F        -0.36923973105268      -3.81493632004030      -0.70892642980247
F        -0.46490595416427      -6.40159798261594      -2.92044373955290
C         1.33538244397553      -4.56872364062883      -2.55409415205666
C        -1.92681909707992      -5.94380604020111      -0.87275530932408
C        -1.51781673916027      -3.93400385339730      -2.96602614324753
C         2.31526543267591      -5.65430164641874      -3.08862516889088
C        -2.37679443846189      -5.28226044962379       0.45832284368612
C        -1.89273337550963      -4.33398791697037      -4.41425592866726
F         1.99916144241427      -3.89326683186405      -1.58693482075104
F         1.19318498054289      -3.70670309151088      -3.58083979653054
F        -1.60841244042168      -7.20995113546842      -0.56239745520075
F        -3.00360529208875      -6.00800074619213      -1.67454848120589
F        -0.92163121865936      -2.71087659234039      -3.04496353405069
F        -2.67914033087245      -3.68769248035820      -2.31703431478808
F         3.50103928828520      -5.08436280237019      -3.33233896020391
F         1.86683165026784      -6.15995057066066      -4.23196959556100
F         2.51392134122055      -6.64755568723529      -2.23481962996041
F        -3.38714940833891      -5.95232761779533       1.00545896476746
F        -1.37955553872614      -5.25003617372604       1.34000702316456
F        -2.78937720014055      -4.01708255059919       0.27811207658553
F        -2.51113902409588      -3.32112043590456      -5.03021844203450
F        -2.70947983207225      -5.37894041564093      -4.42055611296232
F        -0.80765357818885      -4.63879933725207      -5.11946430011199
