43
C13H24F3NO2 optimized with ADF in AMS.
N         0.39447296982993      -0.76009261647282       0.14837253018394
C         0.61280473200279      -1.87697943396550      -0.86777192132144
C        -0.43568299893053      -1.43251390176771       1.24969317484588
C         1.71428573243149      -0.27719126232075       0.71894674332734
C        -0.70187201398266      -2.63499606793379      -0.87265231176266
C        -1.07173211161772      -2.68345855987529       0.61983347170064
C        -0.39539594367534       0.35634993884980      -0.49711988143043
C         2.64838871477352       0.33498750798866      -0.30606029940064
C        -0.54422589056229       1.61565491695969       0.34142583043828
C         3.93448594798794       0.80578003902965       0.37891937893738
C        -1.50149457046893       2.59146785777520      -0.34263600226779
C         4.95633010295849       1.33706544997445      -0.62115796917358
H         0.91262325862764      -1.43800145364911      -1.82707289975458
H         1.40925452257046      -2.50161239540318      -0.42964358552890
H         0.26880226752394      -1.72227645913502       2.03913900990271
H        -1.15700800042673      -0.69457091881309       1.62183174295757
H         2.15607447277953      -1.18877626667652       1.16500381417369
H         1.46536137879731       0.43504151421093       1.51983106926220
H        -1.47018182174022      -2.12117828285681      -1.47381557060311
H        -0.56499342694910      -3.64058842841754      -1.29580705596541
H        -0.59773436196683      -3.56259519106505       1.08209228630859
H        -2.15814993766022      -2.72509399398705       0.78248897124440
H         0.10751408315738       0.59375260003140      -1.44632018729566
H        -1.38405957088638      -0.06214399694242      -0.73642299186610
H         2.91376129711286      -0.42173904684953      -1.06284010327239
H         2.18567088555129       1.18933029325881      -0.83333838140204
H        -0.92100301059083       1.37258869153095       1.34842455792978
H         0.43703657652942       2.09793941763322       0.47459795368308
H         3.68938585853688       1.58838652136442       1.11982892426462
H         4.36818646897267      -0.03983866074766       0.93725956086876
H        -1.14336620424780       2.86061540554129      -1.34844993482360
H        -2.50765678021865       2.15693965436837      -0.44716900073808
H        -1.59157289460489       3.51890352338396       0.24076298736605
H         5.86749368226485       1.68199021484283      -0.10992296730169
H         5.24894758122027       0.54768810020276      -1.33152640022909
H         4.55038998076917       2.18307806421508      -1.19919505419788
C         2.91307292350915      -3.97688341243941       1.49208965601174
O         1.95123243287452      -3.14368716151189       1.48652847843004
O         2.96364951168887      -5.16796520083565       1.80972670071740
C         4.25901918267800      -3.32964450886098       1.00000969899073
F         4.69000032886775      -2.34597235786784       1.86711020355265
F         4.10749896913229      -2.70155824333592      -0.23165029757251
F         5.28296027698070      -4.20394625823099       0.85829873951007
