43
C13H24F3NO2 optimized with DFTB in AMS.
N         0.13586210081335       0.07258116492335       0.41634324242451
C         0.07918792214002       0.16584625492639      -1.08104754439966
C        -1.30084318471830       0.19726951919185       0.81888678058180
C         0.68887219559606      -1.25311987855626       0.85021733860119
C        -0.98324695552763       1.21768987542201      -1.37342703896349
C        -1.90360013660553       1.22145581488408      -0.14267662630311
C         0.93514226727857       1.23110006844278       0.95148791498802
C         2.11367662671137      -1.48822052254551       0.35963736800686
C         1.18358908478288       1.19145355325350       2.45001375504008
C         2.67704445991630      -2.80223602039427       0.90797624333118
C         3.99925549447355      -3.16299057340904       0.21796858750630
C         5.05042081254910      -2.05688143134642       0.32203128663959
H         1.06734725176111       0.42592831703746      -1.46505394514430
H        -0.21947627633612      -0.81426635945908      -1.46001390809580
H        -1.76792141990860      -0.78183495851880       0.68985293412238
H        -1.36957210662305       0.48932263678001       1.86631500528516
H         0.63342746255260      -1.28898271952639       1.94109503416617
H         0.01997710503964      -2.02009170656876       0.44877016949040
H        -0.52248140171314       2.19581773972991      -1.52035329810742
H        -1.52729800947553       0.95916356865547      -2.28293819875625
H        -2.92438069747629       0.93331383151481      -0.40026715145991
H        -1.93730637163623       2.21144819342432       0.31618621527976
H         0.38956294839804       2.13719420544797       0.68538686332036
H         1.88515978322347       1.23732398667611       0.41149281678360
H         2.75753932028243      -0.66757131191085       0.67377345893332
H         2.12591881996120      -1.51298535026294      -0.73204988622986
H         0.26290759629047       1.07860127128135       3.02183170811980
H         1.87154050685369       0.39310047899567       2.72344490509055
H         1.64278540392993       2.14053622099933       2.72695310004000
H         1.95792553790868      -3.61229756128429       0.74211976961619
H         2.83300706599733      -2.70931639758795       1.98844581154495
H         4.38543394447607      -4.07864265658772       0.67815592573335
H         3.80488537263732      -3.37747550136830      -0.83810971409508
H         6.00592165213175      -2.42630946740563      -0.05003987229584
H         4.76317399970387      -1.18873699025600      -0.27205746891755
H         5.17978599116173      -1.74589212330099       1.35992739517222
C         3.58351191772526       1.68710203973030      -1.78464013538527
O         3.10737183597593       0.73013691536136      -1.15553736240997
O         4.69832042167544       2.00293236157737      -2.11831522239156
C         2.38497962090505       2.72521415172968      -2.22523075891778
F         1.66699861391735       3.11610051550531      -1.12619309165237
F         1.47275659640556       2.10849046288909      -3.02289367597046
F         2.75817283154535       3.83979178360973      -2.85034168612210
