58
C16H22F18NP optimized with DFTB in AMS.
N        -0.78860147973238       0.63551176852576       0.19154126227376
C        -2.16400103364112       1.11127048693449      -0.21044789346548
C        -0.90115618966302      -0.74365633840003       0.77408963528761
C         0.02645079994419       0.55987907650480      -1.06998287651534
C        -3.19240336405256       1.02136769584771       0.90977819891110
C        -1.88954349792053      -0.82467959515627       1.93171885606821
C        -0.16244344841791       1.57043303143475       1.20314914764252
C        -3.28003317384434      -0.39090725178966       1.47564736988847
C         1.44230997358755       0.01165740910911      -0.89095279117755
C         0.43061364084304       2.84513076938919       0.62335662115902
C         2.23642342641042       0.22897614491447      -2.17911710275337
H        -2.47720455077199       0.48398953541166      -1.04983718313221
H        -2.06599756841366       2.14090521771279      -0.55553931072582
H         0.09352152377441      -1.04685460887621       1.10564331498312
H        -1.22229372795896      -1.40597488055324      -0.03553323570829
H         0.05821706669931       1.56759226461878      -1.48868795618280
H        -0.52458978051012      -0.07855344929229      -1.76563343212439
H        -4.15349265733625       1.32214447033128       0.48654943745028
H        -2.95584674740200       1.72097430164776       1.71227909290431
H        -1.55385335062949      -0.20223111648685       2.76490045033556
H        -1.90693844122038      -1.86294677207651       2.27331388646309
H        -0.94494324264317       1.82892126344952       1.91493187235419
H         0.60920856459851       1.00408504295228       1.72990241171757
H        -3.96899979709608      -0.40587635687322       2.32258392000474
H        -3.65347172934641      -1.08469870396156       0.71525365824991
H         1.95226430826728       0.51204976891726      -0.06527772400584
H         1.40696487291807      -1.05828181482817      -0.66861315133910
H         0.55294386958762       3.54979827029116       1.44581838977047
H         1.40378955164963       2.67257119419831       0.16669933989952
H        -0.22978542726796       3.30369591320896      -0.10657044687631
H         3.23894047169675      -0.18103902043613      -2.06404929294460
H         1.74966760062059      -0.26912384747251      -3.01793970646434
H         2.31821398971930       1.29266036157477      -2.40316070581662
P        -2.63451995539457       5.25233078310377       1.65180487089717
F        -0.99824124690649       5.62415648262290       1.68080968150057
F        -3.10129031596855       6.68254068079017       2.34674624789076
F        -2.23191577566755       3.72645000660425       0.94011726546923
C        -2.58368534264545       6.13057203224022      -0.10499871365551
C        -2.22740142685257       4.52306997416492       3.46783099731698
C        -4.53704356368254       4.58268896844792       1.55789023813128
C        -1.69611356590645       5.54613973892641      -1.24034845181209
C        -3.24063510469990       4.07964747550400       4.56909203329229
C        -5.25385459783419       4.09730946646263       0.25982876950512
F        -2.13730818388662       7.38413475547188       0.07412483602119
F        -3.83122332435931       6.22601418478381      -0.60577147000770
F        -1.49225102284714       5.48221488215187       4.05042552517738
F        -1.40491248138694       3.45162951764706       3.30362690214006
F        -5.38487621538389       5.41900753773464       2.17035074462972
F        -4.46614253169869       3.45457536912539       2.31773355349979
F        -1.82764955632852       6.27114956293047      -2.34928964863713
F        -2.01527763035508       4.28205772266088      -1.55604246813358
F        -0.40664145206570       5.54899652374686      -0.90437710825780
F        -2.69198154442628       4.25736960334322       5.77316413291956
F        -4.37157479916351       4.77082064992539       4.53803231448802
F        -3.52557376963280       2.77830312845757       4.46440973026880
F        -6.00629788402224       5.03685872272884      -0.28714681369106
F        -6.04748744675107       3.05513127019829       0.53848995092082
F        -4.37565237868225       3.66475027535442      -0.65506706290529
