41
C11H22F3NO3S optimized with ADF in AMS.
N        -0.60705980611614      -0.21528987271150       0.06138054422063
C        -0.50676821841605      -1.33916366410886      -0.96596670671970
C        -1.49435923056748      -0.81802690976024       1.13705365075193
C         0.74030045926751       0.13516770670105       0.65724790913635
C        -1.84131816588443      -2.09341626454374      -0.89612385352729
C        -2.56345585426745      -1.58386975701868       0.37473897977215
C        -1.26200645408528       0.97792034650215      -0.54540525206549
C         1.78392875359581       0.58669909770896      -0.34820609043262
C         3.16065261249573       0.60177856388203       0.32337835127029
C         4.28100507971902       0.99520846223501      -0.63651427838028
C         5.65642382764900       0.91272291723753       0.02135238826488
H         0.33660327116333      -1.96539489434930      -0.64143614907597
H        -0.28820816942022      -0.89224439076948      -1.94389197366200
H        -1.85385387765863      -0.01355454994321       1.79367218313169
H        -0.85674300461090      -1.53137536398467       1.68078839816087
H         1.08997991051642      -0.79256257503715       1.13407117577462
H         0.54756354581163       0.90377121269751       1.42354502824173
H        -1.62175402416154      -3.16593886056759      -0.80889319122599
H        -2.45420657074540      -1.93275747046445      -1.79522228637722
H        -3.42420174839360      -0.94485037884236       0.12357037482047
H        -2.92905045620715      -2.41507031785675       0.99376387046302
H        -0.62884414417713       1.35697382623478      -1.35580069484181
H        -2.23836910524317       0.68184594358732      -0.94803497619678
H        -1.38934477566106       1.74765433304277       0.22710159281790
H         1.82362727533489      -0.13133911872647      -1.18419574106143
H         1.55511765872120       1.58482910798358      -0.76147010749840
H         3.35702934414309      -0.40947770590146       0.72117885509036
H         3.15056250978369       1.29586926212270       1.18518426248747
H         4.10396652026173       2.01782905587162      -1.01728427946248
H         4.25134389527004       0.32211335309924      -1.51265218425428
H         5.71788126600134       1.58166350845136       0.89448616360028
H         6.45773739057577       1.19554753944383      -0.67838083889516
H         5.85691899855791      -0.11257113000085       0.36967595619772
S         1.28329934410577      -3.80335422126429       1.12294636518122
O         1.99757538662210      -4.49527308722273       2.19088019217276
O         2.00153265384479      -2.66662577605611       0.48697703967374
O        -0.15271350634910      -3.52025723052741       1.35868979112238
C         1.22175847316109      -5.04445894446941      -0.28513833358491
F         0.52829244757127      -6.15938332672971       0.05720547815222
F         2.46518496580440      -5.42218954721712      -0.67193425188149
F         0.59919987958715      -4.49755143842791      -1.38242985986139
