28
C8H12F6NP optimized with DFTB in AMS.
N        -0.46614134332229       0.27649651256836      -0.50264388552573
C         0.97033528695889       0.26853275299945      -0.79583210591575
C         1.76140509943163       0.06284184894585       0.49713833786855
C         3.26058305869626       0.05870848616313       0.20840632086833
C        -1.04930527457725       1.42680267339680      -0.13678518567435
C        -1.18333073322859      -0.84186767805265      -0.67923281698867
C        -2.40443096882926       1.47399883276901       0.11635142578725
C        -2.54145726005538      -0.84629585286423      -0.44012399057572
C        -3.16744377885184       0.32440903316495      -0.03352026859002
H         1.16390415678372      -0.53358046261440      -1.50993678693899
H         1.21679780641839       1.22345807281672      -1.26463302410300
H         1.46637070350240      -0.88708680449130       0.95438332597107
H         1.51966348317008       0.86569905985548       1.20083634762552
H         3.51395996223885      -0.74630193351682      -0.48168313000472
H         3.81431478495607      -0.08837583361953       1.13502821264799
H         3.56591382895823       1.00677224991997      -0.23469058881349
H        -0.41392920840260       2.30102209720354      -0.07598959221889
H        -0.65237682246125      -1.71386447057912      -1.03879161190318
H        -2.85847540534187       2.41590827530562       0.39519843549888
H        -3.10578748524499      -1.75494778615869      -0.60457435696335
H        -4.23676178567459       0.34658530270169       0.13613470772483
P        -1.16662100941059       1.16806431198286      -3.77120021217654
F         0.15467410218760       1.37902508844394      -4.70223028530167
F        -1.84895123228781       2.53231310284289      -4.33664506044091
F        -1.89286507870331       0.25894188568121      -4.90812720236291
F        -2.45404337068245       0.93343178328757      -2.74050068216795
F        -0.46089547692025      -0.22007786353144      -3.11926520206955
F        -0.41966046760781       2.06208809657914      -2.54399806405703
