31
C7H16F6NP optimized with DFTB in AMS.
N         0.94194231641010      -0.23894682445833      -0.02110741518695
C         0.23108901255546       0.72338065355190      -0.92808895601389
C         0.26587318651341      -1.57894583911648      -0.06402779748535
C        -1.25059292210704       0.84873330503892      -0.59838082233797
C        -1.21496426921338      -1.49573329572109       0.28225874011915
C        -1.93583246976639      -0.51605572015730      -0.64232837402273
C         1.00185799298442       0.28306927918603       1.36854465148341
C         2.34130793212074      -0.40142901120604      -0.51055245135262
H         0.35784760515804       0.34646886642640      -1.94442089281539
H         0.73639883360742       1.68797687608564      -0.83751303827679
H         0.79651697150471      -2.23161670139213       0.63323887424809
H         0.39073197781322      -1.96054674937174      -1.07891621064169
H        -1.69402688725777       1.50716854054133      -1.34964698972274
H        -1.39370805360472       1.31742649383319       0.38056562185460
H        -1.35551758787027      -1.20786656468896       1.32910305082129
H        -1.63316641349983      -2.49743957726744       0.15457744549995
H        -2.97864399332325      -0.41554959715883      -0.33255032922335
H        -1.91439228765341      -0.90004573812208      -1.66514155965218
H        -0.00191995031671       0.41345426642527       1.76361060174285
H         1.54881351841828      -0.42734621682652       1.98613840618828
H         1.51931861661515       1.24086955179907       1.36066402789247
H         2.31791032577544      -0.77854024310642      -1.52982074173075
H         2.83640394441517       0.56744230691623      -0.48363196848410
H         2.85962647635166      -1.10643994343457       0.13657501199775
P         1.04301911277526      -1.73587628346048      -4.00929872229178
F         0.39748684101511      -3.15891932115308      -4.45156100516276
F         1.71782049165089      -2.46487920842426      -2.65069202061234
F         2.40696915525973      -2.01688084466702      -4.84210368368988
F         1.67582690269844      -0.27564777751767      -3.45900872216778
F         0.35615667460470      -0.96293243524879      -5.26210138379424
F        -0.32155150993457      -1.41311332530474      -3.06851944608260
