37
C9H17F2N3O4S2 optimized with ADF in AMS.
N         1.31222040265163      -1.19337191992574       1.02025731661303
N        -0.51686700372831      -0.97462244952840      -0.13264758442828
C         2.55972054575175      -0.90716043742961       1.76040976474490
C         3.12528936416311       0.47483476912758       1.46965874521663
C         2.51841085817035       1.61293543634074       2.29391953670564
C         0.49753447044747      -0.30832975234800       0.43929017770026
C         0.82588977447221      -2.46238844199297       0.78715453343151
C        -0.32180681651590      -2.32590476498832       0.06247826704817
C        -1.61744371272849      -0.34923958065590      -0.88321622579908
C         3.10468191359371       2.96943069980559       1.91255691492544
C        -1.33466366789252      -0.25918884642168      -2.37268175799254
H         2.32720036823008      -1.03088321456824       2.83197493277615
H         3.26465359963283      -1.69095719384730       1.44928905305827
H         3.05476315234991       0.66768534365389       0.38477248944475
H         4.20668715959887       0.42293793739127       1.68392294859799
H         1.41862158971054       1.64505739536170       2.18649102588813
H         2.70307393390793       1.41459021801221       3.36563047107300
H         0.64208807185824       0.76071592751002       0.39789299822982
H         1.36828582814366      -3.34330279813421       1.10985436300720
H        -2.51923207086758      -0.94236212260151      -0.66733459882933
H        -1.77036142414778       0.64698018419149      -0.44164657881876
H        -0.99057467307773      -3.06850702595367      -0.35382215642303
H         2.91779571554617       3.19588096446790       0.85076180845106
H         4.19586577223940       2.97794518087965       2.06434895623087
H         2.67223662152929       3.77999010178857       2.51789383312153
H        -0.40625516179795       0.29871377566832      -2.55961740278184
H        -2.17433131164924       0.25533596332250      -2.86360698229154
H        -1.22060040385188      -1.25677618102658      -2.81754722900330
N         3.29723121495821      -1.66136551615080      -1.08057319111118
S         2.65842168950988      -1.04907645976871      -2.40925828846923
S         3.91659508248346      -3.14814052020795      -1.04565040393614
F         1.27855008909660      -1.97387769954003      -2.61722871440619
F         5.39041853939172      -2.95662634149431      -1.74235198917533
O         2.11621044367005       0.25763939790529      -2.04506526778112
O         3.38479629447645      -1.22695907780922      -3.64690591278155
O         3.24390465264692      -4.14068805415581      -1.85818766261923
O         4.20665986742695      -3.42316019237777       0.35637744858332
