55
C15H32F6NP optimized with DFTB in AMS.
N        -0.38161998892276       0.74013938647116       0.02677866446081
C        -0.67316346699696       1.75638121890847       1.09863280119385
C        -1.61770396877659       0.54091803525168      -0.79693825018719
C         0.67426833037523       1.30266452296766      -0.89333872669887
C         0.08372042062885      -0.54016123633525       0.66260505587201
C        -1.86950855940697       1.38894796353021       1.96518222450334
C        -2.81973448463278       0.11232186960922       0.03696569441754
C        -3.11810530582919       1.14702456155913       1.12130224522381
C         2.04552340608166       1.51622783583102      -0.25595624607862
C         0.40786847406267      -1.67643829414992      -0.30081428111357
C         2.99941381334194       2.12646266567955      -1.28867710943210
C         1.04374041340353      -2.81666300122441       0.50691182908742
C         4.36856752009115       2.39579968537490      -0.65537581912934
C         1.43215238623880      -3.98826599428635      -0.39891469518483
C         5.35148853031693       2.96159944143433      -1.67770784428401
C         2.07693102354749      -5.11493824450089       0.40628688690566
H        -0.85437663752190       2.70722898511930       0.58915978019419
H         0.21707516471098       1.84309614351553       1.72033379435862
H        -1.39299827338257      -0.20183513661028      -1.56478847670489
H        -1.82948049225271       1.49566180835008      -1.28730317169440
H         0.28456607466101       2.25572338702859      -1.26283697815172
H         0.75605584827932       0.61972919554684      -1.74289454463777
H        -0.68703250481172      -0.86037134104382       1.36274274971065
H         0.97183767110618      -0.29065917087547       1.23865929466936
H        -2.03792454990870       2.22511254910335       2.64838547501262
H        -1.64170272809163       0.51185271433842       2.57418442469854
H        -2.64548992808857      -0.86873171158611       0.48558637453693
H        -3.67339993677246       0.02172063768375      -0.64016684578826
H        -3.43736461086190       2.08379290399573       0.65217248507723
H        -3.93211823440978       0.78971368536340       1.75602010426691
H         1.96960718639960       2.18707246788085       0.60100841058467
H         2.46100440106475       0.56956206187986       0.09377689546416
H        -0.49537020918142      -2.04071579902527      -0.80014044445825
H         1.11350519978061      -1.34948846849839      -1.06909945424970
H         2.57965614333548       3.06397504177695      -1.67045185592079
H         3.11106375247513       1.44032810120074      -2.13590319840285
H         1.93268382402254      -2.43779152585000       1.02062615956219
H         0.33703752260912      -3.15906045347421       1.26945503489492
H         4.76473028677360       1.46406635220352      -0.23941944238427
H         4.25064260880878       3.10438736556546       0.17029339588978
H         2.13382662745046      -3.63930180494793      -1.16441673978769
H         0.54032092179957      -4.36702564224109      -0.91063414757253
H         6.31353610535592       3.15115001540727      -1.20198802135359
H         5.50175807409402       2.25683693577059      -2.49700669715512
H         4.97699722356864       3.89946533091398      -2.09079136315284
H         2.35248155846377      -5.93644156708257      -0.25518095898902
H         2.97518892488538      -4.75665266652970       0.91005931531315
H         1.38338293424239      -5.49128714042113       1.15919466016846
P         2.09202722852847       0.60870536308308       3.76883702843254
F         1.53493595565482       1.42510124773268       5.06182333999278
F         1.90885252619897       1.98512712914824       2.82317935602572
F         3.62819392185783       1.02787647069856       4.09068264841205
F         2.59875347839585      -0.19955697213392       2.38767569759864
F         2.22218635068791      -0.77067805959635       4.62222514006986
F         0.50653864864922       0.19693068328895       3.36063542911380
