34
C8H18F6NP optimized with DFTB in AMS.
N         1.07124880164954      -0.36591397391703      -0.21259080005248
C         0.69575703212847       1.08061070295484      -0.37135843730551
C        -0.12085387812201      -1.22970447106366      -0.48116924688913
C        -0.49545680756817       1.48782438528129       0.48479134979604
C        -1.32100846352215      -0.86698880774945       0.38672867312111
C         2.13624775018814      -0.64237304548738      -1.24928061860022
C        -1.70470373847731       0.59982327249685       0.19897644249637
C         1.61282488220243      -0.61308538328626       1.15230801559429
C         2.75849059268429      -2.02608396682370      -1.18006349841234
H         0.46387279349702       1.23329428384282      -1.42875240727045
H         1.57649068703475       1.66959682608586      -0.11008969822660
H         0.17334432842685      -2.26576653437589      -0.30425049674667
H        -0.37465915135368      -1.10862540250715      -1.53804397590983
H        -0.73078425916992       2.52694686446215       0.24182220288339
H        -0.24071296988432       1.44699452353751       1.54677383026617
H        -1.10582005696527      -1.06914646601782       1.43917956488872
H        -2.15109195588272      -1.51184140432353       0.08683296712204
H         1.66619751022027      -0.48651039774300      -2.22394740919136
H         2.91220036798537       0.11107056163435      -1.10853203752088
H        -2.52339900856730       0.85630161419591       0.87498528267945
H        -2.04688812456937       0.76065247930645      -0.82843446659716
H         0.88998271443259      -0.29397005112643       1.89791768373903
H         1.80779060726016      -1.67593933374511       1.26952529055036
H         2.53590077839220      -0.05070897491953       1.26698519857280
H         3.44722349720816      -2.10749081330976      -2.02106996609985
H         3.33541305443779      -2.15540637195314      -0.26713713488482
H         2.01933614156635      -2.82218777617643      -1.26112949316968
P         5.11130681474067       1.10960389511540       0.33590333556344
F         3.50485659494085       1.65995842512236       0.45530951608232
F         5.59682392484253       2.62826919028324       0.02564547376349
F         5.27417236630326       1.33033221783737       1.94406987858219
F         6.61683053323214       0.52169886664980       0.20194332032843
F         4.52141235047223      -0.44175980893699       0.62930420578814
F         4.83443774963609       0.84799145545606      -1.28191804164078
