28
C10H12F3NO2 optimized with ADF in AMS.
N        -0.29898508035045       0.17390676121636      -0.19291694184066
C         1.06941037866700      -0.32855134327068      -0.43081631632503
C         2.12623600468121       0.71375112502925      -0.07688603110206
C         3.52798242731755       0.15724030670290      -0.30246604594122
C        -0.79857360387847       1.12296973168927      -1.03203218419993
C        -0.96734303431756      -0.19773892655137       0.92668078671912
C        -2.04597951049425       1.65361137541943      -0.82296338702663
C        -2.25401360138423       0.30306759313632       1.15873975113486
C        -2.79725639573758       1.21884383430902       0.28147474208050
H         1.19263113861601      -1.22841666898952       0.18927930943142
H         1.13148322182327      -0.63133392607910      -1.48927582014740
H         1.97111601738127       1.00871314831306       0.97349360331969
H         1.97157659155581       1.61424731293774      -0.69718300612048
H         3.71143280072261      -0.72247466003463       0.33450359688172
H         4.28406526927007       0.91428370896462      -0.04938852476731
H         3.68531266812890      -0.14146777385326      -1.35167258121321
H        -0.15864957148888       1.40432007658323      -1.86527070944805
H        -0.53960529029849      -1.00711993555266       1.50543036544341
H        -2.43413082208357       2.39654089396428      -1.51858700894195
H        -2.78572138475046      -0.02524119425195       2.04755905057229
H        -3.79850626522347       1.61499786778311       0.45319609583158
C        -0.29817624626266       1.67834373115926       3.15008003486591
O         0.37765810208407       0.80716004314093       2.51487956525846
O        -1.51959222837007       1.76175174678236       3.34813206230657
C         0.60763147199520       2.81442951536683       3.73570054991615
F        -0.06166516687796       3.64770924135544       4.57103753028570
F         1.12491960886279       3.58639058107951       2.71957191402770
F         1.67232549771233       2.30881329915023       4.42992584679887
