56
C16H19F18N2P optimized with DFTB in AMS.
N         2.77000461597239       0.55200649675080      -1.17186137346604
N         3.94679264163639       1.54122911730555       0.33246129314030
C         0.49423126373540       0.37411085161393      -2.08911464650120
C         0.03498305523523       1.76853725839054      -1.65363177678000
C         1.99403507271223       0.33075789258883      -2.38769909658881
C        -1.47334902780227       1.80102712719046      -1.39056993720975
C        -1.92621453553801       3.19987352747465      -0.96028038487814
C         3.23973597939488       1.73140782402097      -0.77729760337234
C         3.17540809582723      -0.41187849782600      -0.29006324736382
C        -3.43045434968944       3.24199097073997      -0.69799835967225
C         3.92265209296637       0.21186777779380       0.65879526688902
C         4.69549848252890       2.57295073422831       1.03298457235124
H         0.25735924539372      -0.35990917959007      -1.31233064008664
H        -0.03268051966606       0.08241548148845      -3.00193048679269
H         0.28596420040409       2.49127514015075      -2.43608181286597
H         0.56949141581175       2.06136176676178      -0.74302433734441
H         2.27632064269075       1.10758966276248      -3.10249868976923
H         2.27918031157757      -0.64511464420431      -2.78745161623902
H        -2.00728037883255       1.50691080399642      -2.30040565802852
H        -1.72310884365251       1.07637914502467      -0.60756077812180
H        -1.38896288759391       3.49220529475854      -0.05147557147243
H        -1.67249150326077       3.92031687420617      -1.74475930689075
H         3.09525179326793       2.66866052674346      -1.28210258773361
H         2.92056487218351      -1.44918350581883      -0.41805464063597
H         4.43912180143603      -0.17548819717999       1.51940811194004
H        -3.70053634809788       2.54389163557361       0.09570108223931
H        -3.72799372316122       4.24565950435191      -0.39418968251738
H        -3.98307610037699       2.97349546865412      -1.59928673251546
H         5.71411227672414       2.22051014104996       1.18942435260342
H         4.71021853692308       3.46849686525218       0.41519007470120
H         4.22054911920785       2.78101731203985       1.99226128248799
P         5.51256508982388       3.27286292171262      -3.32259272185081
F         4.34118954936345       2.01083500040991      -3.31268544103993
F         4.86315448544561       3.75994624431504      -1.80266509880124
F         6.13553104896405       2.78229276366219      -4.79040471389212
C         6.68023077159344       1.96114227550534      -2.43223219356188
C         4.13069462585039       4.28092731212986      -4.28959137681930
C         6.78425404323329       4.77653834395902      -3.11377797291299
C         6.44808821569297       0.45311037901673      -2.73324232598249
C         2.92817887144140       4.85151133898601      -3.49283098411078
C         7.83839896377936       5.11729205288990      -4.20255662783720
F         6.60247656442558       2.05926677446564      -1.08188850662941
F         7.95149887711591       2.21664473626737      -2.77483003909324
F         3.58941232398966       3.45943289709001      -5.20793334875521
F         4.67790131769076       5.30625305692739      -4.96065519409557
F         7.45984544512405       4.58039394177143      -1.96418998751661
F         6.04032515500974       5.88704011059161      -2.93419279198769
F         7.50677200054105      -0.26191032655258      -2.35035652603989
F         6.22389161597031       0.20019522818546      -4.01220928081515
F         5.39752615233665      -0.00462185623913      -2.02878103242802
F         2.04165343354058       5.41308476218406      -4.31046850784815
F         2.28684869802247       3.85671117144304      -2.84336902732855
F         3.28417007033912       5.75302468823390      -2.58944923686249
F         8.53611741302072       6.19562292650966      -3.84037811809357
F         7.25959643782112       5.37635011162933      -5.36982347728182
F         8.69481217980664       4.11592336791317      -4.37624823132221
