48
C12H22F6N2O4S2 optimized with ADF in AMS.
N        -1.06762691526943       0.41523439757301      -0.48109448938540
C        -1.89984783700036       1.51655052065728      -1.12375395094755
C        -2.01338533789621      -0.65502823284761       0.04637021135949
C        -0.20174609204208      -0.18714823167535      -1.58156135228738
C        -2.94243385357007       2.10250226530285      -0.18908893399636
C        -3.06130974937350      -0.10285575516765       1.00110787676253
C        -0.22509504724952       0.94817531961433       0.65933114313838
C        -3.87166345438280       1.01298029928384       0.34423588869714
C         0.77557895155929      -1.26081584611580      -1.13676407490554
C         0.82975086429340       1.96044589383881       0.25995634524682
C         1.57162576649855      -1.74561975182594      -2.35156575864303
H        -2.38785739154549       1.05245024244976      -1.99104454972171
H        -1.19777133594283       2.27057128228838      -1.50258837963347
H        -1.38751844229348      -1.41937620536516       0.52637101596098
H        -2.50573549815250      -1.08227771593010      -0.84209363752861
H         0.32725108531597       0.65464097636459      -2.05156464067747
H        -0.90853348565203      -0.58555015655571      -2.32801600561302
H        -3.51314184069454       2.83762113401135      -0.78045780623120
H        -2.46940389989581       2.66282123198672       0.63746204382864
H        -2.60135200313487       0.24205505462958       1.94396092085283
H        -3.71707517227524      -0.94841549815729       1.26802707704354
H        -0.92012284570597       1.38764240572119       1.38387318347617
H         0.23241231997035       0.06737967416164       1.13222445575438
H        -4.59305434022693       1.43779844171657       1.06026276081671
H        -4.44194392740901       0.58631066738466      -0.49843035632663
H         1.47361600786017      -0.87871906451584      -0.37230718444543
H         0.23577723881590      -2.11422578989753      -0.69523860927659
H         1.36395434346635       2.26973465869148       1.17155449419538
H         1.57294472592953       1.54472356596160      -0.43382078955531
H         0.39605738863323       2.86689233592324      -0.18550628930049
H         2.25821544883090      -2.55369196594729      -2.06213326402773
H         0.90182437150109      -2.11193635495136      -3.14323260727663
H         2.16894564797188      -0.92710767854060      -2.78239616132739
N        -2.43111537611473      -0.93252253538736      -3.94451799480616
S        -1.65870764128756      -0.61404982290008      -5.33185306984027
S        -3.95703534425904      -0.54045643169356      -3.61216143713854
C        -1.32947652557574       1.25602029799052      -5.37168547812372
C        -5.13506636012825      -1.44878671607304      -4.80402994563680
O        -0.31745803830626      -1.16244079016973      -5.16560117394617
O        -2.43530646019969      -0.86133090909662      -6.53635138904515
O        -4.27339235403368       0.87695243665861      -3.79085406857891
O        -4.24240372283157      -1.15629815345449      -2.31067079625273
F        -0.32302314009821       1.50504468970269      -6.24170764956849
F        -0.93066602739211       1.70270152205995      -4.13868593438649
F        -2.40838653055215       1.96381176973911      -5.74796753229425
F        -6.34688901492356      -1.53273827507934      -4.19967315309719
F        -4.69145237595503      -2.69669208771775      -5.06031528845514
F        -5.28136293737632      -0.77596165684658      -5.95808163645602
