37
C13H18F3NO2 optimized with DFTB in AMS.
N         2.25961636422219      -0.02303221443561      -0.68999082161809
C        -1.54744139650293       0.16789367538825      -0.69715996355035
C        -0.13748103304959      -0.07399439020405      -0.15188197961457
C        -2.61036087837860      -0.09698517903089       0.37356821879409
C         0.92040232521836       0.21282625110982      -1.22424381436392
C        -4.02157283604613       0.13922963319488      -0.17385274411168
C        -5.08406844780493      -0.12389644669371       0.89197378039723
C         2.80921730283607      -1.31783511114428      -0.86743655345150
C         2.99471047045522       1.01215259403232      -0.18449146326099
C         4.05131364592672      -1.54129047731725      -0.08982107160616
C         4.20018958331700       0.81426849231781       0.39469150031437
C         4.71850560269464      -0.51569062263008       0.46844073030486
H        -1.72212923279274      -0.48868112708506      -1.55643667484735
H        -1.62972075609595       1.20302409310058      -1.04616845699065
H         0.04532651485151       0.57286104322626       0.71194651026954
H        -0.04249517280819      -1.11238530330845       0.18142012755246
H        -2.52280366051138      -1.13083920518882       0.72508928675029
H        -2.43543628200886       0.56241205425299       1.23068845799924
H         0.85309781410799       1.25402415645463      -1.55264739472654
H         0.77100634105613      -0.43632554341202      -2.09276153370256
H        -4.10698670825953       1.17300582712966      -0.52557722069947
H        -4.19446129216156      -0.52056534380063      -1.03084192490693
H        -4.94086164998554       0.53896084597786       1.74652131759313
H        -6.07826940329125       0.05039019526800       0.48000914651245
H        -5.02842846949589      -1.15608605458338       1.24070329572597
H         2.05143851039825      -2.09685877355431      -0.71388178095692
H         2.52263351543126       1.98661135204430      -0.23709177249455
H         4.40717399911188      -2.56259431649571      -0.04578035304602
H         4.75578880471070       1.64320788250459       0.80914517440650
H         5.64117218540158      -0.69022735944992       1.01017348341510
C         3.87007476368531      -0.73996511669247      -3.02869790705020
O         4.45230824278019       0.23069564247472      -2.64865660941876
O         3.08337545193076      -1.54103798350177      -2.36963583671714
C         3.95925931826346      -1.19948404683108      -4.53411483612016
F         3.62519019072396      -2.47903670540215      -4.69286968737591
F         5.19108492066111      -1.03117967875958      -5.00852049904867
F         3.12462508400874      -0.46292209955541      -5.27618012385613
