40
C12H25NO2 optimized with DFTB in AMS.
N        -0.60919361397167      -0.13187603834122      -0.27359423066990
C        -1.28372159475732       0.15288360851141      -1.58878147689279
C        -0.90897171885719      -1.55022114734090       0.12935586185888
C         0.86871317202412       0.00057158541413      -0.50679451138181
C        -2.77960295166834      -0.13844600211852      -1.58359309101342
C        -2.39811673059050      -1.86542861373172       0.16203334760975
C        -1.09047542542891       0.81428369396589       0.79439849540192
C        -3.04479088478065      -1.58867922215793      -1.19134274456567
C         1.73903289539135      -0.26411420110497       0.72174237018562
C        -0.61909916613913       2.25042526354396       0.64375981222169
C         3.19872107949764       0.04049478554016       0.38618013378059
H        -0.78503715009579      -0.47124261010143      -2.33794984618060
H        -1.09701141005754       1.20075208591341      -1.83105861344205
H        -0.47523258696812      -1.70692669586365       1.11841021017671
H        -0.39599290583450      -2.19676129814075      -0.59071999422493
H         1.04567368834476       1.01189029858083      -0.88084401391709
H         1.13296425798800      -0.70526405112424      -1.29951171853556
H        -3.14808863619641       0.05492047367302      -2.59469915330928
H        -3.30740121355170       0.52913016694372      -0.89362210671631
H        -2.88647923257797      -1.27433460827408       0.94635321802807
H        -2.49798007177820      -2.92318087254257       0.42007216726358
H        -2.18577870308753       0.81148979443984       0.76149418751745
H        -0.78933154788965       0.40594040778959       1.75993051989128
H        -4.12179095802587      -1.75624989335678      -1.12322522305049
H        -2.63807178403522      -2.26869185145813      -1.94998077988808
H         1.42523417648816       0.36181208603214       1.55937374228104
H         1.65330292108975      -1.30955813596426       1.02838894811046
H        -1.17550883118849       2.83687685430529       1.37513590214780
H         0.44549702692574       2.37414887573343       0.84204731846305
H        -0.84635398981569       2.64984317519171      -0.34375338108966
H         3.82389574143513      -0.16223269523022       1.25491898553331
H         3.54071203504556      -0.58136654435943      -0.44189414644216
H         3.31777298277619       1.08825693040912       0.10852416905575
C        -5.46191545021797       1.23607248812680       2.66732697402518
C        -4.17975988153074       0.87319517370246       1.88299390878941
O        -3.99396956929493       1.48649508380418       0.80634621099114
O        -3.43207041245397       0.00312243417594       2.37690484962925
H        -5.49537833406228       2.31354192971043       2.82211803731095
H        -6.32871508260751       0.94397693088128       2.07539479670756
H        -5.48102041904264       0.72060637352203       3.62546269123933
