32
C6H12F6N2O4S2 optimized with ForceField in AMS.
N        -0.01054474396055       0.03941762939118       0.00028717294149
C        -0.91234132508750      -1.08448678309286       0.33690904960467
C         0.63874284985636       0.53705045508745       1.23328218737721
C        -0.79265772845496       1.13070340883545      -0.62126282993614
C         1.02475613455291      -0.42640668844747      -0.94799381514294
H        -0.34906043196653      -1.92081879611769       0.80873056011084
H        -1.70412736582721      -0.76095269163888       1.04938268016949
H        -1.41321110512390      -1.48127309577273      -0.57462737221754
H         1.32568795641206       1.38372645526119       1.00874819265971
H        -0.11842164167949       0.89579820506139       1.96615684354828
H         1.23455817764075      -0.26606312075047       1.72254014411873
H        -0.13643006767367       1.98891747504830      -0.88954926405411
H        -1.29600508777632       0.78134378529694      -1.55072924638529
H        -1.57812836868030       1.50426389433898       0.07340798313967
H         1.72452489577122       0.39747193532650      -1.21346403634904
H         1.62332755716739      -1.25382966518442      -0.50599087236982
H         0.56394538926784      -0.79900483047649      -1.89030408599079
N         2.31763652123435      -3.26740854057854      -5.54405233923603
S         0.82780541928943      -2.79687280659867      -6.04053322267550
S         3.21332217516202      -2.39961773100892      -4.47979218466314
C         0.98333961814964      -1.86139613066679      -7.54830438630932
C         3.03836795976841      -3.11101057512187      -2.85699581720153
O        -0.01071517814355      -4.01409325587490      -6.31026234943463
O         0.16090843183546      -1.95093791251465      -4.99140976280209
O         2.76634270852342      -0.96425646194102      -4.45043556394876
O         4.65948004548436      -2.46573429260702      -4.88204343076299
F        -0.27006876259431      -1.48568667228798      -7.99197649218574
F         1.59619190285066      -2.63862070444678      -8.51280356010169
F         1.74560176404414      -0.73200070878925      -7.31912021866982
F         3.69245477986575      -2.31977695737043      -1.93224241590034
F         3.58897322669199      -4.37820194523577      -2.84522060133029
F         1.69903605280015      -3.19387402472379      -2.52825778950258
