55
C17H32F3NO2 optimized with ForceField in AMS.
N        -1.09337802242875       0.82145536283558      -0.18197695998565
C        -1.57432544166739       1.86440196137782       0.78222450998971
C        -2.07550867858810       0.72084794735790      -1.31009169706414
C         0.20071283018161       1.28757448987678      -0.78835666388543
C        -0.92907920078364      -0.48917029564104       0.53963852738679
C        -3.01841264479561       1.64349908861148       1.27966461451675
C        -3.51803023057304       0.43338650162895      -0.86463553056654
C        -3.99579577307129       1.49866321293854       0.11650684596059
C         1.40887392187987       1.37786778270715       0.17602605108526
C        -0.34342305043335      -1.65213335874057      -0.29868376911793
C         2.64745664619932       1.90054528911525      -0.56543808980921
C        -0.20833861899063      -2.91826014761867       0.55823780092897
C         3.87058428245683       1.93491890186409       0.35569119318387
C         0.37256964574692      -4.08129982706886      -0.25464744338048
C         5.10483511142300       2.45304567370256      -0.37683156428470
C         0.49049338680593      -5.34299885627215       0.59589042479912
H        -1.53389760708403       2.87582441271506       0.31568451295705
H        -0.92498199034578       1.90208467215412       1.68337912628267
H        -1.76980832204926      -0.04727323572748      -2.04984140561367
H        -2.09979152965597       1.67940518930974      -1.88041177261479
H         0.06246954732530       2.29701435834047      -1.24127575462771
H         0.48657753287907       0.63093654691647      -1.64027262471352
H        -1.89759946641224      -0.84095928943422       0.94432210236173
H        -0.29085985100168      -0.35074149139051       1.43985431468552
H        -3.32416546408658       2.51836632901133       1.89315573628847
H        -3.07904739445252       0.75512962035665       1.94207797572378
H        -3.60829258023839      -0.57854858637396      -0.41948114719104
H        -4.17869678624559       0.44955857614513      -1.75824420021681
H        -4.09143423980634       2.47336375164413      -0.41071482907088
H        -4.99845180391987       1.21965052967549       0.50609814064263
H         1.18811027651482       2.06827953259388       1.01524567431786
H         1.65258376894234       0.37859986982233       0.59084956364048
H        -1.00861217765557      -1.88698068127464      -1.15377624920820
H         0.66135925312482      -1.39130924312238      -0.68754060389088
H         2.44410666577693       2.92598586457950      -0.94485122661318
H         2.86498033647289       1.23900582992030      -1.43296242522837
H         0.45862467039169      -2.70813890556895       1.42330202143809
H        -1.20986348110706      -3.20777408544549       0.94640725113674
H         4.08062715224562       0.90948421498675       0.72418571070280
H         3.66650821538730       2.59175018735869       1.22893824333956
H         1.38134649635993      -3.80732908474850      -0.63312476771313
H        -0.28418108978151      -4.29608555215190      -1.12556390816927
H         5.96950133758680       2.47188676530602       0.31960584824077
H         5.35367021337381       1.78904779507888      -1.23187652745515
H         4.92837501342722       3.48372884965619      -0.75093526714099
H         0.91605682595919      -6.16604905897467      -0.01586034268551
H         1.16003309715204      -5.16316546003854       1.46377796653472
H        -0.50992778704943      -5.65578844797609       0.96367462542221
C         4.91866864855897      -1.04351270408776       3.23177541312265
O         5.07593405134330      -1.84996855580652       4.13448354903056
O         3.90167280006307      -1.08512257380777       2.55836219500720
C         5.96455623702206      -0.00529281207282       2.94759866034256
F         6.41489439669839      -0.14572615292044       1.64761257749302
F         7.03674045749138      -0.14490855156352       3.81152319779046
F         5.42051936563320       1.25553920614025       3.10945710579459
