48
C12H22F6N2O4S2 optimized with ForceField in AMS.
N        -0.56004165884744       0.30878832699721       0.15137653313677
C        -1.55380635877057       1.23755548109477      -0.47618345976796
C        -0.89682044440314      -1.10922752219784      -0.18356468315427
C         0.77989286682494       0.66504519205713      -0.42492499865305
C        -3.02393341629538       0.89697121391022      -0.16751479045569
C        -2.34868030002113      -1.49319769167260       0.15259485612847
C        -3.33429115695366      -0.55101390731475      -0.52843196113559
C        -0.53552492596491       0.51452761125582       1.62567087426868
C         1.98098375837551      -0.15686941913277       0.10457946466145
C         3.28790814372101       0.30951860727738      -0.55033027546971
C         4.47894085430999      -0.49537604478411      -0.03833405108766
H        -1.44669856453587       1.22439134425899      -1.58617739786448
H        -1.36513371073771       2.28719955149115      -0.15394413994240
H        -0.24069068351414      -1.81500285664319       0.37000678275672
H        -0.73545270148313      -1.29728196106902      -1.27010384043834
H         0.99751946341434       1.74199417561895      -0.23402452528109
H         0.75983268554548       0.54556448620087      -1.53326767816019
H        -3.68120351570140       1.56215538669717      -0.76838354340000
H        -3.26713459726830       1.08909930501103       0.89775757181374
H        -2.51059364500705      -1.48661430155084       1.25133618652467
H        -2.54091450178558      -2.52915702202359      -0.20133514781697
H        -4.36821731568329      -0.79976087110777      -0.20575324219900
H        -3.27450335440696      -0.68187687401846      -1.63142038260719
H        -1.53991540284535       0.42649045537362       2.08218533656416
H         0.08972660911643      -0.24869723672302       2.13505856558556
H        -0.14383075130400       1.52378079029468       1.88308704578034
H         1.84484877164510      -1.23308021468724      -0.12773426012949
H         2.08611115466519      -0.03175874140336       1.20165505491021
H         3.45948277530579       1.38492765052181      -0.32512086749845
H         3.22080758988401       0.18734937380936      -1.65340762791535
H         4.33830316297983      -1.57515002996751      -0.25756755317284
H         4.59792450916843      -0.35373874694855       1.05710290492326
H         5.40455449580818      -0.15153060005839      -0.54374160288078
N        10.59544897556572       2.82407844720813       0.50562195683724
S         9.53688983475371       1.94399488043904      -0.38423733141047
S        11.04381614158404       2.40678595967924       2.02629391160560
C         7.89209879557910       2.57822678446816      -0.13129464364784
C        12.61438532083501       1.57013135726062       1.95967088816721
O         9.88612526822556       2.07700128045068      -1.83983740843413
O         9.58539628209379       0.49450582062452       0.01324763312808
O        10.01833887115351       1.50672829959783       2.65840299855707
O        11.19687540482243       3.65167372202153       2.85408752790116
F         7.00306787581476       1.89154428100157      -0.93495017543569
F         7.86048213198547       3.92013938924171      -0.45984811609208
F         7.52844617302743       2.42239501730898       1.19282118176931
F        12.99962949292759       1.20405346142059       3.23535747596539
F        13.56446795354087       2.41641125998456       1.41994981708264
F        12.50771825265579       0.44027440162566       1.17108422388300
