46
C12H14F18NP optimized with ADF in AMS.
N         1.55407987059285      -0.09719129914094      -0.32474872169606
C         0.46467000758734       0.63458931926776      -1.07693533976790
C         0.88688443980285      -1.41298998076650       0.01109946539930
C        -0.82162917011149       0.31514851921498      -0.31554296889553
C        -0.54855516893949      -1.04329621038762       0.39038602391858
C         1.89671827456398       0.64175144130859       0.93707156514976
C         2.77853257686330      -0.28912228282283      -1.16491970698643
H         0.45398251662016       0.20708224152440      -2.09040758705235
H         0.72630344702000       1.69907142239114      -1.13965200008074
H         1.46830929376920      -1.91793863712509       0.79363940257691
H         0.92240533801330      -2.01658740250624      -0.90721817334431
H        -1.67100314771982       0.26171539014316      -1.01066617514065
H        -1.05419184160369       1.10025256022611       0.41793297600685
H        -0.66187925756865      -0.95040601261165       1.47981287037058
H        -1.24079989157677      -1.83054796914685       0.06046431732271
H         2.31214610140287       1.61923135276237       0.66765156048952
H         0.98880596802187       0.74977717006481       1.54087888772063
H         2.66639955023522       0.07496205393331       1.47309173825133
H         2.48468595686118      -0.82530784809235      -2.07611309050578
H         3.20754005877549       0.68979690524749      -1.40147346516460
H         3.51986776498479      -0.85561961157037      -0.59233714752217
P         6.22183832579864       1.15020228566749       0.15699567270610
F         4.64384133894377       1.19210379109587       0.78156067555624
F         5.73340063003359       0.28980792669757      -1.20110952689566
F         6.73300434586762       1.97739079155859       1.49814225139173
C         5.61436939861974       2.79187090775105      -0.77757855752378
C         6.29329874200644      -0.64577099183061       1.13688074381220
C         8.13147255229344       1.13652965368604      -0.43886432857331
C         5.21722233331591       4.06868414723210       0.02858615201728
C         7.20113222699834      -1.88585009464210       0.77985112189649
C         9.03022060249639       2.41798022989410      -0.63912020138674
F         4.44498312314871       2.50591617692867      -1.49635810068896
F         6.52292605564003       3.20843661528689      -1.71639125983746
F         5.00521017319461      -1.19443318762677       0.99816001513446
F         6.46502025011990      -0.43437025736825       2.48067208755631
F         8.30204436525870       0.40283393080133      -1.58831831292502
F         8.76568609489576       0.45761445224882       0.58349425526038
F         4.83483712439671       5.04192139388726      -0.85187306156823
F         6.22749859476063       4.55861972186251       0.76759003016807
F         4.15474023687204       3.83587450095294       0.84668599927797
F         6.58106100202633      -3.03697235326649       1.19094822334859
F         7.39611978215481      -1.99173663549493      -0.55461306631536
F         8.39600695648714      -1.86074552823703       1.40407614977845
F         9.01361967181375       2.85545899309609      -1.92002975889115
F        10.32416688334061       2.09703719026140      -0.35554814199731
F         8.67257372422186       3.43305938414375       0.17558361754905
