31
C9H20ClN optimized with ForceField in AMS.
C         2.62864794933958       0.34655439806365       1.66011514009839
C         1.57969332315561       1.28072036489611       1.07448406313981
H         1.44415635552353      -0.77559215262011      -0.88711211363436
H         0.43775958944233      -1.69859158605347       0.27797479643752
H         3.19847015503271      -1.37997024852923       0.45679185920416
H         2.11753324054159      -1.74951199300459       1.86080832131558
H         2.52929176290143       0.30575475457020       2.76727703753006
H         3.65489750878966       0.68980659392022       1.40377267018325
H         1.25238833188665       2.03536809372056       1.82675053384625
H         2.06167443146262       1.84306648334711       0.23997267013348
H        -1.25221406212372      -0.55813886664607       1.43104039932881
C        -0.49722787366986       0.21225435676929       1.69731365023468
H         0.02812045236330      -0.15706332091873       2.60575035317438
H        -1.03194454843314       1.14960282523278       1.96800285463858
C        -0.20500657247756       1.16213506506709      -0.56455479687080
H        -0.35653672904428       2.23102996814259      -0.28583955039085
H         0.46602541957221       1.18264631203544      -1.45359939544283
H        -2.33067076679721       0.70131518816336      -0.17530909172949
H        -2.90020998647236      -2.08266474547557      -2.73817904493064
C        -1.59391598211600      -0.75861141972735      -1.62168872914526
H        -0.76285487998591      -0.85508768037453      -2.35309399756348
H        -1.46954951516982      -1.51836543772175      -0.82600242960566
C        -2.91563346823603      -1.05035909907756      -2.32943346138834
H        -3.07223687055108      -0.33917262766607      -3.16846499499150
N         0.45345962478452       0.45116149511048       0.57998313476436
C         1.10548218391717      -0.81737531103074       0.17356091148092
C         2.33563201785229      -1.01332876710191       1.05508228282076
H        -3.76128862439321      -0.96564770553564      -1.61385054419979
C        -1.59825029933919       0.64735860309698      -1.00779115534004
H        -1.96490935202387       1.35993078242734      -1.78021090471590
Cl        4.92699455946803       1.72979694282010      -1.32283293748206
