76
C22H34F18NP optimized with ADF in AMS.
N         0.42811809378804       1.74336426913862       1.53459336638010
C         0.68336399565407       2.80828012529997       0.45668373174455
C         0.33403796299254       2.53966629957197       2.83020313761176
C        -0.89948910305241       1.05935170953124       1.27836338117549
C         1.57507668771080       0.75389367930258       1.58311361523740
C         0.26539755754616       4.15791801900743       1.06014930835199
C        -0.34827173223518       3.83556962266489       2.43346012190516
C        -0.92132000996712       0.12237857393273       0.08255766341886
C         1.43858776028455      -0.31858697436457       2.64743892088885
C        -2.35110034700847      -0.32867105718825      -0.22237404405378
C         2.69684368290513      -1.19072378393308       2.66200730620084
C        -2.41776156273670      -1.28820460855508      -1.40833809865159
C         2.64671819031241      -2.28423844946852       3.72470018880935
C        -3.83815495777640      -1.74831165196484      -1.72877610295033
C         3.92550973621062      -3.11875307671549       3.76690974679920
C        -3.89199720367041      -2.69931478564208      -2.92157719155548
C         3.88557098943696      -4.20514677076630       4.83803617382086
H         1.75221688441944       2.78279940869727       0.22193779541950
H         0.10996217801223       2.52156406958419      -0.43225107523449
H        -0.19762811149692       1.94254734770463       3.58114625442748
H         1.36516110957960       2.72854161894749       3.15272451937014
H        -1.15691027043323       0.51296824441349       2.19777761115649
H        -1.63443462806917       1.86729595596745       1.14825972633673
H         1.65677427881088       0.31713818384924       0.57688346065554
H         2.47329182384507       1.35880993670744       1.75640139191906
H         1.16405922781249       4.77720087315640       1.18595606942946
H        -0.43880286084326       4.69515802468313       0.41004295070589
H        -1.44148662365774       3.71024256068448       2.37505063568351
H        -0.13807445897429       4.62051458901157       3.17339659479716
H        -0.50303482582088       0.61484116191330      -0.81187592899200
H        -0.29626043134441      -0.76406736170265       0.27945101202163
H         1.31970790728792       0.14510610625667       3.64186683145173
H         0.55354831851833      -0.95525534338201       2.47121486664863
H        -2.78474895052231      -0.81657244972325       0.67031568427798
H        -2.97984792127799       0.55659131083353      -0.43117150001054
H         3.57611545875149      -0.54933857403363       2.83752715922505
H         2.83882619923748      -1.64927466816707       1.66586799578036
H        -1.98254287133501      -0.79770037852612      -2.29940230271530
H        -1.78451005478354      -2.17125456945410      -1.20126066319778
H         2.48332464896882      -1.82171487072927       4.71640486512126
H         1.77919450891031      -2.94702433642064       3.54116827436071
H        -4.46987581708175      -0.86327351682852      -1.92863844447260
H        -4.26854773085272      -2.24153542591060      -0.83776142297818
H         4.09209746667806      -3.57658931726538       2.77460580433221
H         4.78520258339153      -2.44774936599080       3.94524533892593
H        -3.49867220989303      -2.21460227270395      -3.82969386746776
H        -4.92189654168886      -3.02379165874878      -3.13205920003758
H        -3.28548425281146      -3.60029449035956      -2.73443353770484
H         3.04908160329376      -4.90130079896083       4.66333668344273
H         4.81590425165138      -4.79226280388624       4.85176809346577
H         3.75090682583555      -3.76409560867338       5.83898108563182
P         4.73850666071979       4.01831794073744       1.89524993471663
F         4.06304929781782       5.32451058677962       1.10751528217211
F         3.16364559348532       3.38546231005034       2.10989266724649
F         6.28162934701467       4.57640632396629       1.70312009549247
C         4.86098768103782       3.14265470419063       0.10653217045859
C         4.55316206389491       5.13766028412457       3.52370160731238
C         5.35978094928946       2.36860386841638       2.86089765261959
C         4.71795125715345       4.04684139000489      -1.16002190441848
C         3.13137980689846       5.39281986147061       4.11438808350484
C         6.85953008400682       2.15418463946663       3.23477159728177
F         3.88208976799726       2.16457212188076      -0.09278420398362
F         6.07076701653557       2.51485694718596      -0.03557169637583
F         5.03776375063945       6.39001748405678       3.22264920382222
F         5.29906377690415       4.68369928015792       4.58649665092518
F         5.03360519069373       1.24887117747002       2.10696890203600
F         4.64410246599621       2.23197603121291       4.03370046252234
F         4.98612421995557       3.29767998944296      -2.27057263689957
F         5.57038575509346       5.08668020982186      -1.15041534484579
F         3.44456588890007       4.50839026520045      -1.30112950159624
F         2.25864241791696       5.86828354113841       3.18830459552156
F         2.59162762797314       4.26423391308248       4.65455916862296
F         3.20665953481859       6.31449495438402       5.10986155286796
F         6.97403390404960       0.99240092401943       3.94948081749874
F         7.35350279035200       3.15064533267830       3.99381250616555
F         7.62411315504337       2.02878601406563       2.12911034042322
