34
C10H22ClN optimized with DFTB in AMS.
N        -0.99712103383554      -0.09006171765882       0.09787767575035
C        -2.13293465836956      -0.16345680098360      -0.88467027766389
C        -1.35078026950722       1.08306738074330       0.97490732498656
C         0.27810619515786       0.17438627812687      -0.64552931154118
C        -2.47544051865430       1.28528237161965      -1.18758874372695
C        -2.26435398360884       1.99481998409049       0.15253897437807
C        -0.93518185386811      -1.33883922605393       0.92923751653528
C         1.54056818968778       0.14039565159660       0.21523057843829
C        -0.63588844172494      -2.59329283597290       0.12615181645254
C         2.73718830621352       0.62578564982173      -0.61248266573912
C         4.02491103783680       0.58523975863561       0.20747718537731
H        -2.96893148325359      -0.64352656568591      -0.36590277547273
H        -1.83311789339528      -0.73988676927307      -1.75935193093065
H        -1.89561323585144       0.69259994079409       1.83642261193449
H        -0.43729870299477       1.57576438805105       1.30657966605510
H         0.35595734766255      -0.56966347544763      -1.44209357365503
H         0.17493595228024       1.15971430910613      -1.10665122973648
H        -1.81946962956051       1.69069828028751      -1.96329317038210
H        -3.50786488944358       1.36810873995012      -1.52894516191496
H        -3.21891475624168       2.09541823314857       0.67374233554373
H        -1.82833425902855       2.98593768923791       0.01720746528872
H        -0.18024513058852      -1.18051796410434       1.70190965213441
H        -1.91953388378002      -1.42583180962672       1.40549719137323
H         1.42730340597506       0.78107037614708       1.09359083475850
H         1.73697979773061      -0.87682783499312       0.56288815742366
H        -0.66963763146100      -3.43919623901220       0.81232925131101
H         0.35134982641552      -2.56644615621656      -0.33429567419248
H        -1.38423605567841      -2.75370660162891      -0.64803334745866
H         2.84698247786070      -0.00839555328595      -1.49836700940674
H         2.55250648962563       1.64980105385128      -0.95352477681383
H         4.23537717740634      -0.43223489226164       0.53868263218461
H         3.93928610929124       1.22644050128183       1.08539976168674
H         4.86078344509575       0.93410270371046      -0.39834704772170
Cl       -3.95761427109377      -0.51376680999499       1.71084797624390
