26
C6H14BF4N optimized with ForceField in AMS.
N         0.58226166248095       0.00764032466794      -0.00201030178145
C        -0.31379812036685       1.07471725777413      -0.52639618440662
C        -0.30481311823031      -1.06302461126850       0.52977698670874
C        -1.72990494957216       0.74613780076667      -0.08900702169008
C        -1.72265940831125      -0.75029488675955       0.08787696356330
C         1.44899953793272       0.54361530011432       1.07468186665608
C         1.44099330268947      -0.52487851635715      -1.08679784797981
H        -0.30447725288777       1.11652537796978      -1.64126189126658
H        -0.03452787545462       2.09356199924373      -0.17017630488307
H        -0.30005294831699      -1.09221824203173       1.64430898796025
H        -0.01476509403754      -2.08268341521295       0.18449217120583
H        -2.48044973123898       1.06537259022560      -0.84431080923092
H        -1.94611227858685       1.23819185399984       0.88510172636935
H        -2.47166766755507      -1.07682614410652       0.84173926226304
H        -1.93124327719974      -1.24511522798606      -0.88638081967795
H         2.11878310133904       1.34318968767326       0.68589101728221
H         0.83811434131889       0.97947014701872       1.89678474477049
H         2.08694958711517      -0.25931229634559       1.50664662893334
H         0.82449029046835      -0.98086878355858      -1.89357624122643
H         2.05615059534493       0.28534280940768      -1.53897232037251
H         2.13102346249617      -1.30864594326053      -0.70084582075161
B         1.82905623292080      -1.81082073294397       4.76589728234650
F         2.95457071369324      -0.94554462083047       4.78416716873357
F         0.75477735755351      -1.20536099741393       5.46952708066678
F         2.16762725317714      -3.04200037163283       5.38623367531618
F         1.43932307372774      -2.05250918575331       3.42343967259139
