39
C11H19F3N2O3S optimized with ForceField in AMS.
N         0.36779786308154      -1.61437401766118       0.31657400359257
N        -1.75684009372741      -0.95884326880245       0.27511526373370
C         1.76942177894965      -1.72451576850549       0.71827775395813
C         2.64925487630605      -0.74264335483982      -0.06732910352503
C        -2.98982284632453      -0.25537481663580       0.62530118702686
C        -0.61001518429067      -0.96878320463026       0.98150535352886
C         2.24261270753875       0.71689950580436       0.18290331569664
C        -0.18094366712145      -2.03518436807964      -0.84114436334946
C        -1.50056365214739      -1.63154195077509      -0.86534275887236
C        -3.20354985755185       0.97098977097091      -0.27207928864942
C         3.18993820743027       1.68571053879816      -0.51635767369880
C        -2.05075912304527       1.96897515133987      -0.16660091055146
H         1.87082439511001      -1.51988383635743       1.80686276922132
H         2.12260204074924      -2.76310424827816       0.53975425751658
H         2.58264223820193      -0.97066423305555      -1.15365904077835
H         3.70472278043068      -0.88846136720988       0.25099363988607
H        -2.95691954585234       0.06908138934938       1.68879659946911
H        -3.84869237759582      -0.94847548742088       0.51311973288221
H        -0.47230147340141      -0.46241680147577       1.92886918597757
H         1.21684282348645       0.89223952151300      -0.20354164002921
H         2.24967422733193       0.92931454390394       1.27431227486049
H         0.34463441616451      -2.56844513123820      -1.62241850193868
H        -2.20863344160779      -1.78903572026384      -1.66842525765093
H        -3.31730570945255       0.64998054386776      -1.32999969380019
H        -4.14359827618819       1.47847323275659       0.03445573713789
H         3.18670090226444       1.50413360490867      -1.61229779501624
H         4.22235810453958       1.56576562037198      -0.12487867009705
H         2.85743774565116       2.72865381224643      -0.32860035245441
H        -1.11652934412639       1.52313180844076      -0.56614819350310
H        -1.89238861738855       2.26847768418779       0.89132477935869
H        -2.28460059650289       2.87478419465806      -0.76421397593117
S        -6.86529349547716      -2.12267856864013       3.27676840430393
O        -5.65898970995028      -1.39761067643416       3.89112511315083
O        -7.95681230051364      -1.04257301097197       3.27475258687478
O        -7.31360258463749      -3.06743931580359       4.40131815976660
C        -6.55997673966012      -2.91815423513648       1.67326880792285
F        -5.54775045676569      -3.84919139579007       1.80449665826368
F        -6.18994439728834      -1.96330687622408       0.74737435020974
F        -7.71130873351895      -3.54835449108775       1.24319792390677
