40
C10H22F6NP optimized with DFTB in AMS.
N        -1.30869351363425       0.38237524783288       0.62032815877057
C        -2.49849513879176       1.26658406644768       0.88112867201519
C        -1.71425715426507      -0.75307486916988      -0.27415704184609
C        -0.28561188505022       1.25076620634648      -0.07019099290425
C        -3.69202447600271       0.51174650532629       1.45071120711821
C        -2.89744109151911      -1.54157360283930       0.27339077272752
C        -4.09816891765161      -0.63271056787337       0.52511443499039
C        -0.74270699912506      -0.12218906952946       1.89720231880970
C         0.99231384691526       0.54357788640540      -0.50836572911534
C         1.83786595278423       1.53019620060033      -1.32555632289933
C         3.13530010152311       0.88075215839222      -1.79981361241425
H        -2.76823811630377       1.71619280160492      -0.07675753307063
H        -2.17176741211495       2.05237043710556       1.56619192924940
H        -0.85022955331233      -1.40974123070666      -0.38846564906489
H        -1.96699214517581      -0.31578965570828      -1.24120053804187
H        -0.04962215844704       2.06270343661548       0.62304344834851
H        -0.77978906955645       1.66955499914281      -0.94614461200945
H        -4.51306566638805       1.22801157201740       1.53632338500998
H        -3.47479131519350       0.13373266518269       2.45470139579758
H        -2.61949171203865      -2.06886100191904       1.19169719601612
H        -3.15507377575890      -2.29366722125641      -0.47666335149960
H        -4.90899504564663      -1.20756598643012       0.97825839613309
H        -4.45051930983486      -0.22502449786138      -0.42545447491599
H        -1.50156291049777      -0.67151074710280       2.44783285417297
H         0.09408027299543      -0.78229883830954       1.67980221729411
H        -0.40257852430428       0.72532463139801       2.48989014985622
H         0.75772303385422      -0.31735973733119      -1.13855409819142
H         1.56564804068968       0.19292418966181       0.35549956508737
H         2.06786803721442       2.40832598339179      -0.71327799703086
H         1.25724648711467       1.86314086829685      -2.19088084021028
H         2.92153382535363       0.01580095008465      -2.42865294584401
H         3.73610390870191       0.55382173266838      -0.94966367561590
H         3.71518643294905       1.59744164733868      -2.38074622935184
P        -2.69257968128287       1.92326816243324      -3.12466353595764
F        -1.80940713236740       2.84908352831610      -4.12510229440722
F        -3.15097449726288       0.93689931178874      -4.33228170570222
F        -1.34905521299156       0.94661568571023      -2.84532968742959
F        -3.53317424878312       0.96076584721395      -2.02300763812583
F        -2.20635935463414       2.86374042223939      -1.81849738085719
F        -4.00655634406083       2.85975025277550      -3.30902117859117
