37
C11H24ClN optimized with DFTB in AMS.
N         2.06248284259123       0.63789056928320       0.33679249296904
C         2.41528550659870      -0.60537022700064       1.09674255267312
C         3.23631364541552       0.81123846822182      -0.58231132851376
C         0.81761006881886       0.45839766839087      -0.47839920735868
C         3.14236698946096      -1.50884223538226       0.10167249760173
C         3.56743432143863      -0.59598299840194      -1.05913277013872
C         1.94286118320457       1.80823296218615       1.24575127804368
C        -0.47135339627867       0.38431210585088       0.33907281522547
C        -1.63462628896421      -0.02400340153426      -0.57271689429662
C        -2.95047478839346      -0.08260028717732       0.20913213975691
C        -4.11454185684033      -0.49798126204696      -0.69607371935549
C        -5.42718043334641      -0.56421035988987       0.08238885052575
H         1.51681777883760      -1.05258974507031       1.52012384094767
H         3.09888734773615      -0.29658343710175       1.89422731947637
H         4.05788965669154       1.20055131718398       0.02934079050184
H         2.98288849735316       1.50995429024330      -1.37968567010066
H         0.94133772670289      -0.45885555219764      -1.05876480170914
H         0.76398367762996       1.30302219928149      -1.17101430554087
H         2.50200879999042      -2.32087564374540      -0.24995226773795
H         4.01441927228898      -1.94972919163211       0.58799038216275
H         4.63586051405348      -0.67857149126008      -1.26292744785530
H         3.02415533052673      -0.84597275880485      -1.97414327065906
H         1.19236498473645       1.59842980089141       2.00396790726197
H         2.91562100561164       1.96129497304309       1.72089737791774
H         1.65984857380020       2.68093183240429       0.65993880424664
H        -0.37439195317131      -0.34528159912840       1.14726519772215
H        -0.69070935936217       1.35762446635945       0.78568449138873
H        -1.42524843460131      -1.00486406141686      -1.01281626514418
H        -1.72554888134154       0.69777654259605      -1.39142177181309
H        -3.15805611273220       0.90047586829715       0.64505756117349
H        -2.85235237433998      -0.79880911635067       1.03196080805671
H        -4.21230996490933       0.22198050020093      -1.51561245949195
H        -3.90121762612942      -1.47819451413938      -1.13566959987439
H        -5.66690001080742       0.40966750300080       0.51122891811482
H        -6.23942549839542      -0.86133500776412      -0.58101378498605
H        -5.35533334767938      -1.29184166214621       0.89182723537891
Cl        4.93634446220486       1.05378719045617       2.12905805713043
