58
C16H22F18NP optimized with ForceField in AMS.
N        -0.10778287628811       0.02897780061582      -0.07263811804186
C        -1.01666652289768       0.53754165130485      -1.15131400292112
C        -0.62766623799684      -1.29095381744305       0.41376884329051
C         1.23550685655989      -0.19137333645282      -0.71238153265603
C        -2.49370914981324       0.63939193155937      -0.73320059880039
C        -2.10368550173704      -1.25991982171931       0.85895994083016
C        -0.01892958394130       0.99026216251291       1.08161063643008
C        -3.00430600792478      -0.71141194709868      -0.24304393982619
C         2.36653626284123      -0.65131770603362       0.24096177240167
C         0.59518628287217       2.36530065226700       0.76027882578837
C         3.66677530724054      -0.87100586807277      -0.52678928954704
H        -0.97867974840990      -0.14238546288958      -2.03466647984838
H        -0.68399205619215       1.52608060209101      -1.53100770534761
H        -0.03825449082288      -1.65562492940153       1.28222024161913
H        -0.53605176290467      -2.06385015367496      -0.38405649944209
H         1.57280505164463       0.73189403455661      -1.23446026012300
H         1.14939915841191      -0.95692405201673      -1.51853326894904
H        -3.09646909435349       0.95040456173816      -1.61377402926223
H        -2.64024220709060       1.41688529198955       0.04452060774794
H        -2.22638818690572      -0.66212743951113       1.78602100099236
H        -2.42752652104999      -2.29517161447652       1.10172178750594
H        -1.01586984628547       1.18755621518109       1.52002465810318
H         0.56161198649007       0.54259255109589       1.91709902152575
H        -4.04001101736841      -0.59936277422687       0.14444049156872
H        -3.03057037912070      -1.42967907905832      -1.09232785754036
H         2.56614914742659       0.11184602478495       1.01997151513123
H         2.10375472331386      -1.60732296485600       0.73625317356707
H         0.62990957985703       2.96553521231477       1.69401434434520
H         1.63602290276949       2.28303134518694       0.39038007142838
H        -0.02319844300069       2.93090518970953       0.03577914214601
H         4.46176437932168      -1.20493270661921       0.17291806218856
H         3.52884846785885      -1.65207191847783      -1.30436974292917
H         3.99431207992333       0.07559585336011      -1.00598327372089
P         4.05315644566508       0.63721599036605      -6.72130455544488
F         3.12915362731736       1.98825906568185      -7.25578774302038
F         5.44180463037811       0.37169747999822      -7.70717068764049
F         2.94046683347355       0.87209843141577      -5.42999222215901
C         5.21724201801381       2.10450712748553      -6.21584412045573
C         2.99088510398646       0.01332859452082      -8.21415660657963
C         4.31388754569678      -0.96522921944164      -5.67218684115945
C         4.64854393413384       3.17525184211609      -5.24518278695352
C         3.24402827552154      -1.42679846169614      -8.70609750266180
C         5.09242859082377      -0.81560840781354      -4.35069690890592
F         5.60342078384587       2.78909140471787      -7.36206715999355
F         6.37022744443018       1.60319853104703      -5.64528903881858
F         3.21344434344352       0.83196597800810      -9.31781142138422
F         1.64721897410508       0.09598878502642      -7.87568758410953
F         5.02705989773174      -1.87863201964514      -6.42727816382393
F         3.08590962038923      -1.54344976157674      -5.38005891225493
F         5.67361563947686       4.03099337077617      -4.88186892532020
F         4.13668905402200       2.62343082796585      -4.09035254429465
F         3.66604297894800       3.93769449732297      -5.85110629955885
F         2.51796331930497      -1.63165731578681      -9.86652786436553
F         4.57774599628598      -1.63524578502555      -9.00255109830483
F         2.81615808501068      -2.36037711035577      -7.78352964216330
F         6.44087025526014      -0.63334682679225      -4.59356984019839
F         4.95847550294372      -1.98109331990635      -3.61696236476995
F         4.61489091556411       0.22244451075158      -3.58324919751356
