47
C15H25F3N2O2 optimized with ADF in AMS.
N         1.51583495389492       2.22778847827901       0.27644279258401
N        -0.64929421053305       2.20459424097890       0.09854269190449
C         2.93057728993762       1.94125126410472       0.00104229394928
C        -1.98880924757040       2.01043696105597      -0.47380493638104
C         3.32056135657580       0.53536326008246       0.45071375607627
C        -2.33966003919418       0.53411011389353      -0.64466928196411
C         2.57977550906041      -0.57042714668888      -0.29668186035585
C        -2.67999824751295      -0.17867047166081       0.66196323091042
C         0.49783618625811       1.94251381397380      -0.55101603038864
C         1.00931247156779       2.65816888185278       1.48188345974865
C        -0.35303602932629       2.64349799446860       1.36944942785376
C         3.07657343277309      -1.96542046336071       0.08396863727875
C        -2.90317485134063      -1.67578903477317       0.45100257872178
C         2.28207651989464      -3.07295658583721      -0.60328424252159
C        -3.35029763931522      -2.38915156829578       1.72504656741979
H         3.51388467885739       2.71163508140516       0.52656979835281
H         3.08062750787925       2.08057089779905      -1.08155580457607
H        -2.01186709898256       2.55241522863634      -1.43214006695764
H        -2.69279367984868       2.50597993681371       0.21043021398007
H         3.11688125446763       0.43811433415223       1.53211227053286
H         4.40983199380112       0.43874486083246       0.29253698753105
H        -3.19632846925449       0.47655536557111      -1.34043916879673
H        -1.49805843911095       0.02189085803274      -1.14761754684841
H         2.68186582949152      -0.42999995463850      -1.39226602743773
H         1.50298038482190      -0.51504070109529      -0.05556074866582
H        -3.60074769775339       0.27272233880447       1.08074885573668
H        -1.88752765920788      -0.02444420874945       1.41596387006684
H         0.58878798111267       1.56492304477451      -1.55987441456305
H         1.63867705075109       2.82132836202213       2.34591463986442
H        -1.11784628568109       2.82842173882140       2.11040729019665
H         2.99951819532381      -2.07836244215047       1.17797985825534
H         4.14839045304691      -2.05219244020840      -0.17323597406887
H        -3.65201643195625      -1.82891211409474      -0.34962270819662
H        -1.96004867519187      -2.12550127869075       0.09208642625663
H         2.34801401845117      -2.98949443837045      -1.70104231924559
H         1.22024563791244      -3.01791315470909      -0.31661572179201
H         2.65254381542955      -4.06921872157751      -0.31826291840576
H        -4.31563761844351      -1.99126642629972       2.07862155405407
H        -2.61158604435076      -2.24873059341170       2.52760699865268
H        -3.47309411421972      -3.46970259608530       1.55598916570487
C         0.49467907690840       0.06779703112901       3.16190593772651
O        -0.64274616219650       0.59314595244474       3.19893582537683
O         1.64370842235020       0.57512005047852       3.14961266149656
C         0.45451666007072      -1.49835578691209       3.06987655934608
F         0.09984420029615      -1.89065560746432       1.78638824955066
F        -0.46703720199506      -2.05200698336302       3.90986390255978
F         1.64609326695114      -2.10771371396996       3.33603302157695
