27
C7H11F3N2O3S optimized with ADF in AMS.
N        -1.53634251046814      -0.12976894344671       0.01263250407326
N         0.30206824980835      -1.13551088566586       0.56563810042669
C        -2.94827853572374       0.27921539034306       0.02683834902300
C        -1.00207759350645      -1.02584441513488       0.85003866023556
C        -0.55722276063469       0.32779794339149      -0.84304348389366
C         0.59869638004330      -0.31190903919800      -0.50125744252519
C        -3.17114309152950       1.46914906565153       0.94658087988570
C         1.18374613309131      -2.13045424618121       1.16821774171756
H        -3.21855466137340       0.50242888337211      -1.01488026441798
H        -3.51092758609459      -0.61393149621707       0.33956632784086
H        -1.57571810189839      -1.62898753134353       1.54784313938090
H        -0.76982923827173       1.05112173750549      -1.61911040390539
H         1.59021056125429      -0.27054631486655      -0.93309250276347
H        -2.90066333978252       1.21872798893809       1.98331017176194
H        -4.23462389121539       1.74762594597262       0.93142891767119
H        -2.57978574801347       2.34213721292449       0.63197803240377
H         0.78672366428905      -3.12391723035001       0.91639104027961
H         2.19070259373865      -1.99475685366289       0.76027397462611
H         1.20944260785298      -1.98342186769732       2.25505258005947
S        -2.67601876093436      -3.76002550232598      -0.00631719668313
O        -3.30739943335903      -2.70350564978912       0.82987492237979
O        -3.19115457348541      -5.11147803493680       0.18217026990392
O        -1.20460605530361      -3.61711347659909      -0.10841819464446
C        -3.24039985606241      -3.30809738902236      -1.74023456198943
F        -2.77730887923320      -2.06425957066800      -2.10764474589595
F        -4.59418611850342      -3.27258496224124      -1.83337046785900
F        -2.77631238458446      -4.19639104775223      -2.65215286549167
