45
C11H24F2N2O4S2 optimized with ADF in AMS.
N         0.70974345601234       0.06916694023626       0.32757797257818
C        -0.75405838549316       0.29306314687693       0.00238248160300
C         0.87444033846562      -1.31376547646517       0.94898510668831
C         1.46477911434625       0.11915797348136      -0.98876106282642
C         1.23637640657297       1.11737475765968       1.29964941534130
C        -1.67392083222219       0.10183327641453       1.19531275386758
C        -0.03381649555788      -1.53650630182810       2.14632139452735
C        -1.50012684716116      -1.29353031310105       1.79661061982408
C         2.96060406446232      -0.10132184476766      -0.89812846635920
C         1.24078479939184       2.53532339999787       0.77022646648627
C         3.60032359337390       0.10232049099011      -2.27458260052119
C         5.09045091461691      -0.22534430573870      -2.25585562254320
H        -0.99568082541772      -0.44009175124750      -0.78409378439446
H        -0.83626724590025       1.29784378062437      -0.43483947433117
H         1.93143355081872      -1.42287620342402       1.22181911279823
H         0.64088370115186      -2.02579185221101       0.13959353146797
H         1.23386616176198       1.09817670697287      -1.43599600719195
H         0.99907500373406      -0.65169546994211      -1.62400984922117
H         0.62559920060341       1.03830530862232       2.20473638294055
H         2.24700454587877       0.79009432822956       1.58560353112234
H        -2.70601710317562       0.25723284805048       0.83912913075560
H        -1.48829562405713       0.87758244657673       1.95658270522225
H         0.27986403175746      -0.90188775020390       2.98925271411519
H         0.13642695458158      -2.57137617564065       2.48374704154012
H        -2.13153348220709      -1.40577295348834       2.69163552468335
H        -1.84123524394103      -2.04815647871774       1.06294348494927
H         3.18434207151315      -1.11930403215594      -0.54450297816579
H         3.43121161958420       0.58472898264838      -0.17730228905346
H         1.62121211543959       3.17474350510956       1.58102448476391
H         1.91542657577140       2.66806153616969      -0.08711808014981
H         0.24029272510981       2.90770412459254       0.50419964739114
H         3.44696763592495       1.14906889232491      -2.59728984038902
H         3.08660943515272      -0.53354794773866      -3.01974821012028
H         5.25294128597278      -1.27838986989147      -1.97884992628170
H         5.61754120583751       0.38532809537278      -1.50848736690057
H         5.54525999684389      -0.05110134930395      -3.24194474728351
N         3.78654747549971      -0.25048314602939       2.77295288343042
S         5.00594998447764      -1.12155941748086       2.17210564299302
S         3.00346951561703      -0.73839810196005       4.09636550068356
F         4.17724122433171      -2.34677042430659       1.36519037684994
F         4.08428845476311      -0.49225804264424       5.30126677576428
O         5.58193899749400      -0.34880189090437       1.08718239080870
O         5.83175064308924      -1.82647485048287       3.12619335391643
O         2.68866699259421      -2.15442201487395       4.15357963610514
O         1.95143991318661       0.24014874679739       4.33802689501540
