63
C17H36F2N2O4S2 optimized with ForceField in AMS.
N        -0.52867698503680       1.78673036123303      -0.18821048156543
C        -1.39038404898766       2.33016079254849      -1.28845407606745
C        -0.21058330124762       2.90043481386449       0.76468707171005
C        -1.20657978397224       0.66822837552267       0.55620027884328
C         0.74930893652334       1.32769985418349      -0.83407888420069
C        -2.67655242659219       3.01596783153833      -0.79834210532967
C        -1.45267150029992       3.63811118076116       1.30674679221549
C        -2.34361726447459       4.14241478547183       0.17476849257469
C        -1.51477231180818      -0.60338487276551      -0.27212529997722
C         1.77345515537838       0.63695123297861       0.10208332271858
C        -2.19850228168687      -1.66159702009346       0.60419712925446
C         3.04434135171430       0.26800619822307      -0.67570377455572
C        -2.48739121168758      -2.94052626280820      -0.19070501439776
C         4.05616502837601      -0.46471039692858       0.21410903370097
C        -3.18980766227222      -3.98272971727222       0.68696427370170
C         5.31837003556078      -0.82310912209090      -0.58013899635443
C        -3.46269605340446      -5.26656881338926      -0.09091504413449
C         6.32414852461169      -1.57743988758781       0.28350793595601
H        -0.82368925931719       3.09087601251620      -1.87556604561405
H        -1.66129618749404       1.54361179434886      -2.02252628289297
H         0.34970192252606       2.52240963485069       1.64651539648542
H         0.44026256508509       3.66016173108202       0.27332020738918
H        -0.59634028742660       0.37220459714878       1.43745536252090
H        -2.16568793241423       1.00773262706657       0.99238713844572
H         0.52903062300417       0.63480564895035      -1.67687126726873
H         1.26494502765014       2.19522100611917      -1.30830092633854
H        -3.20927302537052       3.44700012271946      -1.67358478057440
H        -3.37025416437364       2.28705930588664      -0.33139075126499
H        -2.03503655352927       2.98570161911840       1.99005584671236
H        -1.11672834926139       4.50956607963781       1.90952043454102
H        -3.28411797351861       4.55588867391544       0.59870711726868
H        -1.82290312875972       4.96086444217939      -0.36958545272113
H        -2.19706505996318      -0.36450451915863      -1.11251665920190
H        -0.58248796714687      -1.04308044971562      -0.68091729935133
H         1.34717722292529      -0.29505060212358       0.52642419469805
H         2.06002884319822       1.31082990748665       0.93468071405960
H        -3.15472279597481      -1.25037267683732       0.99722979170851
H        -1.54020298300923      -1.90821833707393       1.46639953035615
H         3.51185771704100       1.19513293617291      -1.07514039245460
H         2.77300766852993      -0.38681544437950      -1.53323043774659
H        -3.13513422889740      -2.69624181247322      -1.06164907327851
H        -1.52984103102079      -3.36188634646617      -0.56918408730424
H         4.33248188962665       0.18517983919837       1.07388745804190
H         3.59249122772094      -1.39566106409638       0.60909813262089
H        -2.55298423419969      -4.22398109468179       1.56605257576417
H        -4.15600317334583      -3.57285226126207       1.05457335674478
H         5.04661679540337      -1.46018654604972      -1.44983104961114
H         5.79716695531827       0.10574822983711      -0.96036962937580
H        -3.97184029633322      -5.99961837293370       0.56967987336721
H        -2.50927325984405      -5.71182227571329      -0.44709803642436
H        -4.11895933967624      -5.05774293426609      -0.96256471205376
H         6.63889650302865      -0.94975810213630       1.14096009681518
H         5.87908085451595      -2.52153206620636       0.66350923409339
H         7.22252285258309      -1.82416153867962      -0.32065030429171
N         6.41549664252461       2.29419936907343       4.76459003745036
S         7.68241513703980       1.39863733519747       4.24698292166646
S         6.64111495148357       3.71635232335067       5.54016144114998
F         8.42560525163432       0.68145209285055       5.56407513552694
F         7.11979351697181       4.87597294359294       4.43191357366828
O         7.19211900741504       0.33150896309509       3.31237736087929
O         8.67851874071341       2.27506280772550       3.54043088214663
O         7.71160579938441       3.56819619243030       6.58496932612293
O         5.35516867635853       4.14521159601327       6.18734471423239
