33
C9H17BF4N2 optimized with ForceField in AMS.
N        -0.04806243263297      -1.34532673394486       0.34961354560563
N        -2.06289784087462      -0.41171596554415       0.23477499441249
C         1.30286325371554      -1.65944239671572       0.81107206190174
C         2.35413927308655      -0.89267476040864      -0.00193719118512
C         2.20049935989600       0.62734338965805       0.15448629220055
C        -0.96246125677247      -0.59104989758945       0.99010295499396
C        -0.59243611582766      -1.66242516661004      -0.84278002492934
C        -1.84212267581909      -1.08187028786913      -0.91452031648890
C        -3.21725614984687       0.42303395390101       0.55589806088269
C         3.29459223768693       1.37254822742400      -0.60216695770854
C        -3.17646219318015       1.71529138731447      -0.25255210782451
H         1.40864437496653      -1.40123329661695       1.88793328313892
H         1.48025440259770      -2.75169284826676       0.70855971876855
H         2.26953582132563      -1.17085874311039      -1.07512249561149
H         3.36285498978088      -1.19819118897175       0.35196018267565
H         1.21443387518267       0.95187262034808      -0.24258199568300
H         2.25443713841410       0.90272418929396       1.23007264420869
H        -0.80965846665866      -0.14216633199639       1.96320249704913
H        -0.10585988677610      -2.24535362270690      -1.61329871127570
H        -4.15363114688899      -0.13244917031500       0.33390345183971
H        -3.21333653872440       0.67636966616934       1.63873409466788
H        -2.52580588337078      -1.12224046025038      -1.75201553532823
H         3.26037414731420       1.11484592479515      -1.68185859552192
H         4.29323445213422       1.11099824802040      -0.19329176029151
H         3.14201938587646       2.46700050783588      -0.49337686280306
H        -2.24478647467326       2.27564565325651      -0.02431605591388
H        -4.04925842471688       2.34912833799669       0.00935142947776
H        -3.20987143345306       1.49189919847735      -1.33976712322386
B         4.26818499063254       3.26829661899403      -4.00312993973746
F         5.01929188367846       4.07990899770495      -4.89434526531523
F         4.84835818929947       3.32713526918923      -2.70834312974704
F         4.27559557368424       1.92524865362033      -4.46519634135672
F         2.93025318704379       3.74139955541709      -3.94472968237785
