35
C9H20BF4N optimized with ForceField in AMS.
N        -0.05022195976354       0.24117092004799       0.16027491222953
C        -0.96740437273408       1.23101309899512      -0.48918734389137
C        -0.49440847906650      -1.15335003470514      -0.14858385511192
C         1.31406696058589       0.48607629540078      -0.41720598685300
C        -2.45822708372957       1.01317034704711      -0.17954649806595
C        -1.97444532610767      -1.41817813998460       0.18395525022664
C        -2.88366991710601      -0.41204394162863      -0.51312126093401
C        -0.01375171297770       0.47221869494516       1.63045926541231
C         2.45230892047670      -0.40353159501191       0.13855018705337
C         3.77712109794388      -0.07459919833823      -0.54673754736868
H        -0.86034849062164       1.18795131947333      -1.59862292856326
H        -0.69933953005801       2.26946859321825      -0.18755211233257
H         0.10136749711294      -1.89612451597358       0.42462229868621
H        -0.34122037915696      -1.37746090164305      -1.22939965990575
H         1.60857342355565       1.54865652604930      -0.24907950878331
H         1.28931297618054       0.34379576847655      -1.52284879261619
H        -3.05310739213267       1.71479021493904      -0.80073889033884
H        -2.68886413954967       1.24806465399362       0.88032719668027
H        -2.14180307922789      -1.38526223762038       1.28146117486679
H        -2.24470290276416      -2.44106856074135      -0.15682849955526
H        -3.93351854881455      -0.57008993246783      -0.18398351264269
H        -2.83996190395375      -0.56783421173665      -1.61359168942391
H         0.57187015654354      -0.31330190497784       2.15298664328263
H         0.43108039122773       1.46388263263912       1.86902925718298
H        -1.02128308502112       0.44465014736751       2.08820361957185
H         2.59093765668311      -0.23475671436094       1.22591426434566
H         2.23953353554758      -1.47727545124112      -0.03753886590306
H         3.70427148821406      -0.25968840705457      -1.63984209624334
H         4.04845284867723       0.98873703372907      -0.37261047855985
H         4.58186063830184      -0.71745833059234      -0.13130601120520
B        -6.19488596006815       4.05273497938792      -1.28441680462213
F        -5.63373989196315       5.26758130844449      -1.76017407825705
F        -5.15551234006834       3.18992592286569      -0.85084688055096
F        -6.92461945877442       3.42620664926110      -2.32939662836035
F        -7.06503249369115       4.32637940509702      -0.19603913704960
