43
C13H24F3NO2 optimized with DFTB in AMS.
N        -0.34736478284354      -0.02960548593979       0.04695626861036
C        -1.26850964873321      -0.12191033055612      -1.13810279649581
C        -0.72343074930494      -1.10050863228938       1.03777855984310
C         1.03351092149665      -0.33141246998485      -0.47903125139586
C        -0.40126824169969       1.30999519665159       0.71670069714184
C        -2.74074478698406      -0.03864871241351      -0.76280807466826
C        -2.19404049728363      -1.07302008031202       1.43244392413955
C        -3.09089528361165      -1.16925135414428       0.20130784711283
C         2.16359702604987      -0.23082444519480       0.54234322236598
C        -0.00573571231856       2.48486762425157      -0.16609774120007
C         3.37229022503006      -1.01174430542740       0.00720367898250
C         4.54474897872741      -0.95124669651531       0.98236518787987
H        -1.07351385647596      -1.09879636328855      -1.59281500557040
H        -0.99189736609015       0.66521477336161      -1.84117596837811
H        -0.09642148406498      -0.97043078006042       1.92122988079779
H        -0.48141834187652      -2.05463564612356       0.56450942942456
H         1.21837659154210       0.33979620419675      -1.32028391733756
H         0.98636629129210      -1.35895019263162      -0.85139807615192
H        -1.42058145456456       1.45610526855551       1.07829058262925
H         0.26325590242862       1.25746020467658       1.58231524589923
H        -3.31559665495112      -0.14527254839573      -1.68638148033093
H        -2.98686280683522       0.93455771790757      -0.32593428931619
H        -2.43045024286730      -0.17155403712630       2.00758360793019
H        -2.36396556370463      -1.93491921563572       2.08299228412923
H        -4.14049582917508      -1.10223531801124       0.49644708739265
H        -2.92332856023570      -2.12996424853256      -0.29442794708418
H         1.86457386198340      -0.66654824402860       1.49850756376824
H         2.43980770624345       0.81393860893354       0.71769348826506
H        -0.07126673743697       3.38895035670274       0.43925916216499
H         1.01545713607661       2.39287022202224      -0.53053674321833
H        -0.67721488786309       2.59567488974790      -1.01553565737123
H         3.67509330620571      -0.59605760262590      -0.95939019685490
H         3.07498069840728      -2.05341300876138      -0.14940048929186
H         4.26417741382820      -1.38198138590978       1.94435452235947
H         4.86170583224977       0.08077696806980       1.14218243667548
H         5.38667573050492      -1.51554953050499       0.58209042812436
C        -0.03605567057137      -3.73171128139138      -1.14565667865089
O        -1.10383049492950      -3.15322597445485      -1.36933599887515
O         0.93885332417742      -3.35876308787521      -0.48714060671611
C         0.10964594979364      -5.16864173185948      -1.83025762949980
F         1.00550379428228      -5.94797309374495      -1.20747828431470
F         0.51717613725014      -5.04791223867117      -3.11006328099136
F        -1.05115809324818      -5.84200548526657      -1.85216133812289
