46
C14H29NO2 optimized with DFTB in AMS.
N         1.34379428163705      -1.10257063338659      -0.13403850667202
C         2.45052343560360      -1.20080974879607      -1.16677791532068
C         1.65468205514805      -2.15277847480389       0.89587108385791
C         1.38522811910162       0.25447968790386       0.52374956557042
C         0.02635841905480      -1.37972894449183      -0.78309721956939
C         3.51649817415240      -2.13568782255375      -0.59901128023110
C         3.16739971190810      -2.28454259971467       0.87873120023984
C         0.90770524099082       1.39508821643331      -0.37016263216865
C        -1.15835831643649      -1.34251132189255       0.18078414012500
C         1.25550670849904       2.73293585420100       0.29384428592437
C        -2.44952358160817      -1.67696429081154      -0.57577728349534
C         0.72633688661091       3.90400477204826      -0.52999607479866
C        -3.65870597079770      -1.64008445725448       0.35623174172373
H         2.85765168167856      -0.19256209595215      -1.32648291427411
H         2.02980459893612      -1.57826198099678      -2.09973297812057
H         1.18116905122855      -3.08659719596151       0.57989237918006
H         1.25055197637911      -1.85162935745347       1.86209175673090
H         0.77659701240527       0.20272772097762       1.42999299088342
H         2.43636611755724       0.41167185665871       0.80109663881617
H        -0.10837735554087      -0.64330195443176      -1.57809210814097
H         0.09865610823480      -2.37040329765563      -1.24097321504627
H         3.49101581704999      -3.10483316552702      -1.10544835010638
H         4.50623760081837      -1.69378623820269      -0.71748166504150
H         3.63206216101510      -1.47799578101527       1.44937727855675
H         3.48073297469484      -3.24596547444426       1.28758562569454
H         1.41217612096583       1.34966100432357      -1.33735008944573
H        -0.17382270062650       1.33830003407055      -0.53352560180831
H        -1.01217859324216      -2.06679593773517       0.98697086483020
H        -1.25356782111982      -0.35138305008767       0.63055638743162
H         2.34268607553764       2.81025609730926       0.37394536672132
H         0.83009276348394       2.76793598946894       1.30301650126602
H        -2.59117273713383      -0.95549159244026      -1.38710426214123
H        -2.36218864073760      -2.67258454323515      -1.02344289613513
H        -0.35985323756354       3.85129779711587      -0.62687343972351
H         1.16616568010841       3.89327672469928      -1.52774806438365
H         0.98685134061947       4.84536697767626      -0.04591793487405
H        -3.77284807316355      -0.64806801013330       0.79464545415063
H        -3.54268673387060      -2.36555650985271       1.16233812456044
H        -4.56384429260303      -1.88061630660956      -0.20097144818147
C         5.90219364445383       2.06149570634235      -0.23072214070044
C         4.58625333861776       1.25043343718749      -0.24534219351242
O         4.42345657028475       0.42622600610311       0.68250796193472
O         3.78551122511662       1.48926319031847      -1.17454897040805
H         6.69674174641632       1.47748927754450       0.22972632976797
H         6.17816013856468       2.34714529025930      -1.24392912986869
H         5.73917749127031       2.96334298789802       0.35940789030227
