64
C18H26F18NP optimized with ADF in AMS.
N        -1.07020215611435       0.05584081428353       0.76946092410994
C        -1.60950167860486       1.46302667781366       0.54788151496266
C        -1.83505482867669      -0.57646060330511       1.92574008142408
C         0.39603769957026       0.11681286235881       1.18190757734767
C        -3.10780806415800       1.47935033965671       0.29254910955283
C        -3.33698188386581      -0.59909212411358       1.69660701028303
C        -3.88692914343862       0.80027568264315       1.41812220302389
C        -1.20885274532573      -0.76994994811324      -0.46668184225476
C         1.34403790826564       0.71373530429189       0.15607664929584
C         2.73618958878191       0.87573920481924       0.77366087873163
C         3.75702524302619       1.41739139499820      -0.22145082020240
C         5.12951150132003       1.63475784960927       0.41256224567733
C         6.15289786092233       2.18561401734857      -0.57542301611534
H        -1.05409776447228       1.88732112388709      -0.29829813459362
H        -1.35892354177050       2.02322714387992       1.45919510412446
H        -1.58095300170809       0.02535231738489       2.81100954609431
H        -1.41856907202164      -1.58703966601630       2.05666127822449
H         0.41900886723840       0.69722279598257       2.11210202281758
H         0.67951428502209      -0.92196051690911       1.41792620123858
H        -3.39771583873030       2.54043019672306       0.21581233857443
H        -3.34005665659459       1.02037451656774      -0.68442569066829
H        -3.59696696321287      -1.29671070925627       0.88125313646660
H        -3.78994913037147      -1.01420604929801       2.61244519201934
H        -3.80361910424578       1.41151102529644       2.33003821519638
H        -4.95574327849289       0.74198656317172       1.15797006125538
H        -0.68576130123331      -0.26764800240513      -1.28807794283540
H        -0.76086061194428      -1.75445963856730      -0.27857518601131
H        -2.26580921707836      -0.88509540269300      -0.72044671946583
H         1.41767664503609       0.07568791564956      -0.74117239909740
H         0.99586004507807       1.70855754473537      -0.16622219434868
H         2.66806806052773       1.55532194053277       1.63836196251770
H         3.08500284487099      -0.09579743324576       1.16966989501323
H         3.39172531514237       2.37654859563137      -0.63548648538537
H         3.85214941494327       0.72229546781046      -1.07788479385386
H         5.48999970378387       0.67781931274064       0.83245302146065
H         5.02290050130069       2.32545705028234       1.26842747072443
H         6.29500906931354       1.49458875450796      -1.42222941008671
H         5.82161590793084       3.15359257102868      -0.98463614825857
H         7.13244579101564       2.33998310608474      -0.09814779369414
P        -0.60008139612736       3.52515306705371       5.68955158493959
F        -1.53338163282179       4.72166108484053       6.36149600294739
F         0.21227490873208       4.65194936953475       4.76811839933307
F        -1.38505105151169       2.32812786524350       6.53367743202111
C         0.66902372241771       3.73906573576895       7.17595314638551
C        -2.09701182615969       3.39964000941646       4.36662101436462
C         0.48379284737273       2.10342592250544       4.68374894256711
C         0.36250578592971       4.80429924551508       8.27522869023622
C        -2.24003548228432       4.47833272805512       3.25395856530481
C         2.00755833346902       1.80375746445789       4.84160757784611
F         1.92010424971963       4.08041433784040       6.70267739510726
F         0.80530164946930       2.55205556310040       7.86424125576069
F        -3.28481095238625       3.44577659474437       5.05230115409476
F        -2.13573914069861       2.17588642569851       3.68283940273496
F         0.40650961902918       2.44753131107324       3.32359543151171
F        -0.11005943601058       0.85637511553271       4.80460445360837
F         1.36239961388852       4.76958305018720       9.20619507343689
F        -0.79717419464742       4.55044557562867       8.92174651120046
F         0.32931353286530       6.05619160004402       7.76541647479101
F        -3.40559532807590       4.25784733330330       2.55476058412086
F        -2.29389302776151       5.72068877566950       3.75640379695393
F        -1.23331005842409       4.41577923578489       2.34077155506214
F         2.76498769804665       2.86229943019256       4.48876354263810
F         2.33853059092422       0.77596357929202       3.97852152398314
F         2.34345159211566       1.38947433511918       6.07349642168543
