35
C9H18F3NO3S optimized with DFTB in AMS.
N         0.37868875556472      -0.21612892657627      -0.46837682388627
C         1.37454043619541      -0.02989211077579      -1.58297276038601
C         1.19174513780077      -0.11628092625763       0.80188630783403
C         2.40393634506300       0.93780377448774      -1.02754367961130
C         2.54422978016399       0.49316137067479       0.42677787970255
C        -0.27007180462767      -1.57065948668921      -0.54730093917507
C        -0.62534292665096       0.89752823272741      -0.53706461444777
C        -0.97882810909146      -1.83760986636675      -1.86387436496628
C        -1.77806650163136       0.77931436085164       0.45062481246695
H         0.86437461475254       0.33054212553730      -2.47565863754383
H         1.83000608457324      -1.00121111053623      -1.78264997476884
H         1.32060532432784      -1.12156078368510       1.20241275908364
H         0.64801831510082       0.49148616921736       1.52532983706577
H         2.05728108301799       1.97291646869514      -1.09633434176896
H         3.34485969780915       0.84882700820217      -1.57131633494406
H         3.31558158044592      -0.27605919338905       0.50531930208906
H         2.80027208384374       1.32339503719966       1.08643028379054
H         0.52780742728111      -2.30271788120793      -0.41824694957452
H        -0.95725193717159      -1.65078378056292       0.29705272177296
H        -0.07680130192502       1.82545741308091      -0.35889427570656
H        -1.01939709831327       0.92137523090424      -1.55562954194415
H        -1.44109933230668      -2.82163232997268      -1.79095761709221
H        -1.75566878249464      -1.10443115965160      -2.07742970557519
H        -0.26449587723018      -1.86315307045963      -2.68481845342687
H        -2.34054012708074       1.71227369412730       0.41830261258399
H        -2.45193122944768      -0.03242300665736       0.18282195847987
H        -1.42835285009719       0.62666547067907       1.47016810799527
S         2.83476412678809      -3.37346060754647      -1.12086462638755
O         2.66514229605716      -2.51542239378301       0.05487451217618
O         4.19642757944931      -3.65612414690125      -1.48180750979371
O         1.95300056336523      -2.99379461490157      -2.22123135635486
C         2.09588997647823      -4.97108973171184      -0.54466187197828
F         0.83072573238433      -4.73301597917655      -0.16636435949710
F         2.74448976463495      -5.47069389257832       0.49838456410920
F         2.06917107997089      -5.88514088589751      -1.50380651812065
