22
C8H12ClN optimized with ForceField in AMS.
N        -0.49652554858431      -0.00931104468462      -0.39650086493370
C         0.91334194194469      -0.02494761501967      -0.80416502053487
C         1.81775666289484       0.01898543269598       0.43040911567075
C         3.29118032886204      -0.02493366746383       0.03897984463782
C        -1.13763629225046       1.18570247797365      -0.21261832318758
C        -1.15376048979292      -1.18974711471482      -0.17884194276305
C        -2.47275882453792       1.21793805161685       0.19548587641697
C        -2.48871739919672      -1.19243511756546       0.23045821493471
C        -3.14968449997333       0.02010987021240       0.41801192920182
H         1.13146832795185      -0.94075912258484      -1.39823527407382
H         1.13162587185727       0.84468573693271      -1.46373347340550
H         1.59057256310909      -0.84783449698277       1.08861692247232
H         1.62202029445678       0.95300224628316       1.00044592673782
H         3.51210982603182      -0.95452021266281      -0.52741835596145
H         3.91921435294436      -0.00811398159210       0.95445412689146
H         3.54890451195035       0.85577705166352      -0.58677932468289
H        -0.61758637981262       2.12218322362196      -0.37728266043208
H        -0.64629698691440      -2.13755746608785      -0.31535976221110
H        -2.97657861017078       2.16467193803689       0.34003102458623
H        -3.00449667639979      -2.12794158212918       0.40307973073222
H        -4.18350123229877       0.03136461528355       0.73723999920861
Cl        0.34301083922893       0.59673581876728       3.84431103779530
