65
C19H25F18N2P optimized with DFTB in AMS.
N         2.60884078775945       1.91126893561656      -0.25562195792296
N         1.41498395281705       0.98337795238787      -1.78636220775401
C         3.67117469622984       2.13300670976776       0.72194211210778
C         0.96606009883496       0.00868045292706      -2.77604210935869
C         3.33230739992582       1.42569038881759       2.03884712958940
C         0.62952580453392      -1.31982326041334      -2.09155230886223
C         3.11796659561541      -0.07963644217508       1.86039507163427
C        -0.44272347796455      -1.17169064986172      -1.00923218057821
C         2.58864025168462       0.93391450492204      -1.15613423762019
C         1.42270974872383       2.59081665848278      -0.29980497289352
C         0.66720239835506       2.00485801803025      -1.26663613192230
C         2.77404764016533      -0.75932392701978       3.18878819822431
C        -0.69464460218616      -2.50904093844140      -0.30478431561850
C         2.55818050972790      -2.25802727947050       2.98757556448191
C        -1.72136400649372      -2.36023408129992       0.81577457168214
H         3.76399971480312       3.21013599789562       0.87849428077726
H         4.59819449004257       1.74776050088875       0.29789203637948
H         1.77193486822532      -0.13329812807662      -3.50106042308592
H         0.09269488162817       0.42609073401974      -3.28283786884022
H         2.43861025434294       1.88467573158272       2.47480770065994
H         4.17242339217593       1.59772546444178       2.71683993141845
H         0.28754347995498      -2.01385604956484      -2.86404481487876
H         1.53964123042120      -1.73024346182453      -1.64852221388503
H         4.02654478730762      -0.52796381403968       1.45264122600982
H         2.30494420842009      -0.25413663591601       1.14588522948738
H        -1.37293000838311      -0.80552204929615      -1.45733255740838
H        -0.11424239275336      -0.43311414721168      -0.26967967623302
H         3.38372397605760       0.23819871854489      -1.36204415041731
H         1.21809122680780       3.42673155486145       0.34589431044258
H        -0.32083886759972       2.23136683434976      -1.62705120088639
H         1.86806627193185      -0.30911790860104       3.61030478919679
H         3.59077829338154      -0.60033652597067       3.89976467562189
H        -1.04988245799365      -3.24401050856749      -1.03406834261834
H         0.24785924191630      -2.87841407320241       0.11251872652152
H         3.45695940641932      -2.71887531465423       2.57751736454906
H         1.73206830239155      -2.43586484067249       2.29645833398703
H         2.32370765722507      -2.73434326364173       3.93961349124250
H        -2.67366527649493      -2.00544662874359       0.41927066563445
H        -1.36918502655220      -1.64865632907466       1.56400693321196
H        -1.88338461784221      -3.32244050817569       1.30107879012566
P         6.78114366661913      -0.80454587741252      -0.60145356746336
F         6.55787340164806      -1.76532775971370       0.75220787455858
F         8.35206527692620      -1.30889955941145      -0.73261863601981
F         5.13654175643480      -0.22378085874750      -0.51744682908315
C         6.07826695833756      -2.37006641963606      -1.57007519188801
C         7.17829025834596       0.62578137250100       0.69279438930260
C         7.08971549317977       0.34190677588306      -2.22311984708791
C         4.62595188110502      -2.81543339375226      -1.22442422492825
C         8.60687755044249       0.72207158423885       1.28471474621870
C         5.88778895727731       1.08237842218206      -2.86764125850639
F         6.87454928465885      -3.41779828194096      -1.31946553370028
F         6.05004986394151      -2.19711476986255      -2.90631353828784
F         6.34680041056976       0.47246136858049       1.74754241807303
F         6.86993119287568       1.83807686865310       0.18077734484179
F         7.65263665718166      -0.39092508472370      -3.19910114397344
F         7.99296422626917       1.29066432028523      -1.90411872391373
F         4.38460238699793      -4.03314304337913      -1.70660489423886
F         3.74074216142105      -1.98256938266339      -1.80990599401962
F         4.34294124384363      -2.83188950478452       0.07221220244340
F         8.94137679337570      -0.41366351298068       1.88680551107742
F         9.50859197821011       0.98946997650695       0.34858629276681
F         8.65842527480846       1.70024691481430       2.19524044410345
F         4.89663080878876       0.23276551523775      -3.17598558338075
F         6.23385055984049       1.71469924850317      -3.98353272191833
F         5.36314434233851       1.99197162260108      -2.03465336047771
