29
C9H13F3N2O2 optimized with DFTB in AMS.
N         1.96463634946649       0.29421195821175      -1.14677770219712
N         0.14898648854007       0.61510638552269      -0.03410331625143
C         0.98962679984098      -0.31765862724186      -0.47735797811168
C         3.13970235906075      -0.32804177706847      -1.76171387218955
C        -1.01360160295228       0.35680250501368       0.81161593701894
C         1.77618419878707       1.65101861526384      -1.06827565508078
C         0.63396208650591       1.85205776138340      -0.36479511691517
C         3.35064818873098      -1.75530593384627      -1.28467560008210
C        -0.58471718015798       0.18637127642635       2.26446412133700
H         0.86775776732688      -1.37726538321546      -0.35018951678524
H         3.00958476466155      -0.29003927657354      -2.84918139258989
H         4.00015062228165       0.29091582615327      -1.49151591614552
H        -1.69772387932208       1.20225794639517       0.69843538868103
H        -1.50333279151548      -0.54793441325482       0.43845171292023
H         2.47144332689177       2.34571469064630      -1.50438608522188
H         0.13856718670585       2.75864790598680      -0.06622069847740
H         3.40224194700219      -1.78430793111007      -0.19662143821438
H         4.29277430780579      -2.11860655858030      -1.69280992303388
H         2.54903665120009      -2.40925366190851      -1.62793485663355
H         0.12739846584870      -0.63286221060153       2.35008478406442
H        -1.46235069487309      -0.02518305736946       2.87366135481109
H        -0.09991004458755       1.09348635070335       2.62105159663339
C         2.74822204713119       0.44742377567721       1.81018442298146
O         2.16870739630471       1.43136501879214       2.24099092760103
O         2.34912369827914      -0.68216513821597       1.50037205367408
C         4.31212996183894       0.69315007056454       1.46982836968236
F         4.95894885019665      -0.43329253208332       1.11611594725475
F         5.01724669385306       1.26745423417878       2.44730671836607
F         4.39974041714809       1.51814274835030       0.38597116350372
