23
C7H13ClN2 optimized with DFTB in AMS.
N         0.19245035043583      -0.48909080327283      -0.47118631435046
N        -1.74448912322673       0.43325297354881      -0.21765988745742
C         1.56048863181098      -0.70980302867809      -0.93072167188239
C         2.53890421570234      -0.90108439874209       0.23093663604794
C        -0.57608924492307       0.53194545367577      -0.86401056037200
C        -0.45400711250993      -1.17533755335209       0.53203227395766
C        -1.66241467946834      -0.58679865565821       0.69859766061345
C         2.57822902265118       0.30117855498821       1.16975277607007
C        -2.73283621431635       1.49643474137665      -0.22047889247559
H         1.84215650557797       0.16511378515739      -1.52277296646829
H         1.56760048553942      -1.59358227029015      -1.57860561421212
H         2.27590251958861      -1.80606788778763       0.78774579885287
H         3.52809292969044      -1.06026254447978      -0.20984198302743
H        -0.39409018069083       1.14507895531544      -1.72662009462273
H        -0.01273982328510      -2.02138140881444       1.02764710793400
H        -2.47019665505067      -0.81411699204247       1.37180221611571
H         1.60595656344055       0.45909589609306       1.63399870993467
H         2.84191722153442       1.20474747515284       0.62156682737323
H         3.31878409647473       0.13145639362948       1.95108244874352
H        -2.24425335501360       2.39484801628905       0.16825691497798
H        -3.07672756950654       1.67496005276549      -1.23922546440779
H        -3.57034885042183       1.21018286648317       0.41194126951573
Cl        0.29612372156658       2.55827003334240       0.26912651423943
