44
C12H24F3NO3S optimized with ForceField in AMS.
N        -1.38504731670436       0.18059662717840      -0.06864958851081
C        -1.65866199779475      -1.01108806818269      -0.93054246333817
C        -2.48559319778402       0.18687387928400       0.94350053135658
C        -0.06854585040360       0.02278283354403       0.63149723630606
C        -3.02830534897474      -1.55571372024853      -0.57025054774300
C        -3.20987473794934      -1.14247005710461       0.86297594000977
C        -1.44231479016575       1.42426119869864      -0.90340164122395
C         1.16317473667465       0.02710623052920      -0.30573356208985
C        -1.16944540721853       2.72720985463390      -0.12976622629974
C         2.43350100627501      -0.35184378975824       0.46555604266402
C         3.66248054243678      -0.32801315270455      -0.44950493245039
C         4.92605453058225      -0.70629386554558       0.31591290476611
H        -1.61682782188251      -0.78536501840414      -2.02093999603702
H        -0.92935281838057      -1.83532530519639      -0.75587061531165
H        -2.12742627183689       0.36186268639610       1.98392836765770
H        -3.24264519122818       0.97828738529400       0.73704815320587
H         0.07030700950014       0.82696805257360       1.38775071107399
H        -0.06992642059018      -0.92983330626698       1.21109003333289
H        -3.80588346894968      -1.07446156704193      -1.20421191027068
H        -3.08109112308708      -2.66042641852797      -0.68768945112985
H        -2.72072379669017      -1.88153198707440       1.53580438274547
H        -4.28537700940099      -1.04717357919238       1.12947290881810
H        -2.44610237583853       1.51466438029270      -1.37905935791032
H        -0.72167866564837       1.36691637216427      -1.74824812724569
H         1.30698943410250       1.03990161999069      -0.73695210104711
H         1.02435088555744      -0.68934431192983      -1.14216180761089
H        -1.82771533776240       2.82434807998063       0.75711656900557
H        -0.11053521909209       2.78954960349624       0.19248737249299
H        -1.36477822537955       3.59240597032312      -0.79782039155595
H         2.31473877636832      -1.37213664259065       0.89266521260268
H         2.58352808364251       0.36638411866188       1.30182225761909
H         3.52131480608923      -1.04593575421998      -1.28687827095246
H         3.79285255071503       0.69020990955562      -0.87696283783382
H         5.79521528154557      -0.67532313152603      -0.37332996115878
H         5.10480558392319       0.00897276787175       1.14711187062097
H         4.83603184417571      -1.73365592838290       0.72930435214731
S         9.58182578474239      -1.20264583007769       1.35234401107856
O         8.16764802362221      -1.17368684767064       0.75684474184425
O         9.82729716060167      -2.69913848578857       1.59491828530621
O         9.37601209483608      -0.64561646469075       2.76871179007220
C        10.84724110694525      -0.36095522831533       0.36525393388525
F        10.51526037466689       0.97363972436919       0.23356063060711
F        10.91785075328846      -0.94411824603052      -0.88518748676731
F        12.07116127017102      -0.47206220946667       0.99611085256868
