28
C8H18ClN optimized with ForceField in AMS.
N         0.42429702139517       0.21177769380710       0.04038078847182
C        -0.51562757717915       1.27427276195257      -0.43817897773954
C        -0.10057066253065      -1.13978051225336      -0.32266202219096
C        -1.97550706396359       1.07882054333856       0.01191272987782
C        -1.54275795805696      -1.38656360005508       0.15508163436648
C         1.73065460666627       0.45406357543709      -0.65634707975821
C        -2.48399780912672      -0.30740198643261      -0.36898818026229
C         0.61967628224688       0.32748501751817       1.51158383132803
C         2.88187281185486      -0.49295800954280      -0.26976950866967
H        -0.52275775433104       1.30798140188236      -1.55302305263094
H        -0.17817349432663       2.27790229585410      -0.09480727639590
H         0.52972113380545      -1.94230202379715       0.11695561054048
H        -0.07869617641275      -1.27706617481002      -1.42844124417616
H        -2.60996512022915       1.84190681181239      -0.48871027860777
H        -2.08467990373688       1.24296645411814       1.10354617822743
H        -1.58616273902974      -1.42584457950088       1.26404708228189
H        -1.88467417024169      -2.37496734246505      -0.22101551766166
H         1.59922074806078       0.37521491404207      -1.76006803593323
H         2.08269749965055       1.49322430779693      -0.46063590758837
H        -3.49793554871639      -0.45994233491212       0.05950400610925
H        -2.56204957069685      -0.38544299468722      -1.47575654410143
H        -0.33716216302846       0.32369963710809       2.06804598527925
H         1.20628415409735      -0.52627665141845       1.91276190987975
H         1.14810673495643       1.26998762772557       1.77244243846822
H         3.77862593760306      -0.22513953267110      -0.86722916367993
H         3.15975649774798      -0.38410661160432       0.79788499425260
H         2.64066172091285      -1.54993072991456      -0.49785056981802
Cl        1.77722346640902       4.17072137237157       1.37056872393105
