50
C14H15F18N2P optimized with ForceField in AMS.
N        -0.67837131521138      -0.89384515041343       0.41238322639352
N         1.51378271189438      -0.53482578888303       0.32160739998987
C        -2.08285366358973      -0.78183032948273       0.80336087434647
C        -2.89692243109996      -0.04090039154747      -0.26523723357875
C         0.36898500539121      -0.26112873895226       0.97655031039308
C        -0.17848217129506      -1.59673000654902      -0.62442836014189
C         2.83077909320483       0.03940195584180       0.58333998987269
C         1.18147531402914      -1.37046455033991      -0.68317863819248
C        -2.40583512637919       1.39185077779663      -0.47006825657011
C         3.13688002369656       1.13579246968557      -0.43116548771830
H        -2.16885200003700      -0.24232693455464       1.77236937064808
H        -2.50414312708290      -1.80000575327669       0.94774732731935
H        -2.84426538710367      -0.58998281419457      -1.22986590426658
H        -3.96154980951900      -0.01187047974394       0.05249235070123
H         0.29316009373119       0.41603270909631       1.81883252708816
H        -0.76152672363760      -2.20731568713844      -1.30154684387870
H         2.85919585425056       0.47426517760372       1.60651131180963
H         3.60429294632166      -0.75648290485364       0.52594516450518
H         1.87154821371616      -1.76705506840304      -1.41662721092253
H        -1.37341535693360       1.39406096532559      -0.88003183579851
H        -2.41973823773116       1.94792092710603       0.49144437607947
H        -3.06942224450316       1.91277180210341      -1.19178239769201
H         3.10948238866939       0.72543656662418      -1.46252572841063
H         4.14687651368294       1.55429932086515      -0.24221978061028
H         2.38818034668853       1.95165504683475      -0.34297162973057
P         8.32548933953355       4.26860017338614       3.72871841772996
F         9.00033202711383       4.93323851869774       5.16663875498307
F         9.45400787924665       4.29127274119113       2.42615225882927
F         7.14781006784499       3.87847776669772       4.92075546386212
C         9.56735899423656       2.86611648935027       4.23020447441245
C         8.21952423863860       6.19090597251775       3.53292181685563
C         6.85638397240304       3.64225776254375       2.64095257775368
C         9.39571291185195       2.21940425217134       5.63176687382053
C         7.73614278826566       6.73461972807856       2.17169182519027
C         6.59108495468271       2.12383939902597       2.62972679654475
F        10.86043312657071       3.37493085666746       4.19699187489286
F         9.51598510610233       1.85032349648943       3.29664721683210
F         9.47812137965998       6.75027969089145       3.73492108824246
F         7.36112473460029       6.69300719825102       4.50086061697218
F         7.09816896653918       3.99389960506612       1.32482759490307
F         5.68277851373338       4.27524371651489       3.02719622986696
F        10.25486804138175       1.13903792121492       5.72852208593788
F         8.11596449372954       1.75641324783067       5.84821344670477
F         9.72734565355226       3.10537926408794       6.64135616326551
F         7.87428427951652       8.11184753570514       2.17134258870535
F         8.49355305691019       6.23574886944414       1.12862876826090
F         6.40157144708811       6.45663579848792       1.95638253840615
F         7.53239745453757       1.46813306688440       1.85833522618620
F         5.35261116133902       1.88974092385698       2.06118349735714
F         6.57504930046849       1.58821343109683       3.89769361944934
