36
C8H18F2N2O4S2 optimized with DFTB in AMS.
N         0.15705522100929       0.30482919559006      -0.32947137976689
C         1.09371698621254      -0.59681865278963      -1.07921251909432
C         0.91216896240503       0.59185216614513       0.93016447976353
C         2.47826930350038      -0.00789766131147      -0.84035772987914
C         2.37013251247090       0.74483314943773       0.49580483900684
C        -1.13393278033839      -0.39571731117613      -0.02753327913449
C        -0.06240228827434       1.56818318985828      -1.11909372763397
C        -1.93144571845300      -0.76552408612196      -1.26973389124982
C        -1.02442191725080       2.56508794601521      -0.49753844594450
H         0.81951982191425      -0.63444315126007      -2.13108534430251
H         1.00822069397794      -1.59457601571162      -0.64209783834098
H         0.78885417067220      -0.26648749968231       1.59484048441641
H         0.50491619693721       1.47925731996230       1.41308504509773
H         2.74867898351574       0.66922667225507      -1.65261010034757
H         3.22387164976684      -0.80304413408080      -0.79663528294032
H         3.03098583902802       0.31956897050465       1.25304024453263
H         2.62951746107621       1.79781614503498       0.37215677891016
H        -0.87571505355415      -1.29798045971694       0.53398511445209
H        -1.71417255596065       0.26130209919312       0.62436531788441
H         0.91432723891030       2.02980901603292      -1.26609696160768
H        -0.43990964823137       1.25703879449403      -2.09204011614797
H        -2.79015900761754      -1.35559562061606      -0.95077252893280
H        -2.29587992802366       0.11465080755970      -1.79538585018490
H        -1.33942679472257      -1.36140094239831      -1.96188452183608
H        -1.03318890992526       3.43727484933323      -1.15157735833274
H        -2.03912230470335       2.17375308110892      -0.45060879736610
H        -0.71504521861886       2.88246217992299       0.49758110659679
N        -1.28564909701445       0.81056368934544      -3.99874372592161
S         0.08200147063665       0.27451348711062      -4.58422472049155
S        -1.59171704114292       2.37805066429106      -4.09419207375190
F         1.23799188698696       1.00731234015193      -3.64301487545825
F        -1.81755594202221       2.66100634476497      -5.65433464368382
O         0.19056213285947      -1.09523723776555      -4.17558547889997
O         0.43664716443681       0.64405663334845      -5.90948869093798
O        -0.51026025609481       3.23329638739852      -3.70990504649723
O        -2.86273895996841       2.58066394347155      -3.47768598267556
