34
C10H21NO2 optimized with ADF in AMS.
N         0.22906556995402       0.52396599373451      -0.14871532313679
C        -0.36001896063811       1.36074893337631      -1.27863877256523
C        -0.22462667608744      -0.90491011643597      -0.46614233254018
C        -1.71325719605587       0.72861115976987      -1.54346539268211
C        -1.42602431663073      -0.77750756910412      -1.41701430101392
C         1.73911982673462       0.64122384532861      -0.18370078153439
C        -0.32068358397403       0.96976062339973       1.16233145594557
C         2.45846205585558      -0.21946252027924       0.84027510962149
C         3.95594223356862      -0.22739236705440       0.52743447107909
H         0.34277841034752       1.22700128411111      -2.13911505976317
H        -0.38137380452992       2.41220168565928      -0.95646733705710
H        -0.44069301881642      -1.41035196205249       0.48480575348671
H         0.60903921819771      -1.36538049657613      -1.02387543453342
H        -2.07108660227958       0.99712232181025      -2.54843004523692
H        -2.47699770607349       1.05948495325759      -0.81867687052112
H        -2.30132525342689      -1.34348464406294      -1.06770184251598
H        -1.10116168030739      -1.17729453172947      -2.38996218887789
H         1.96695263724729       1.71113230900406      -0.04242578783775
H         2.00984646097650       0.36632727758550      -1.21933494183538
H         0.00896484456986       2.00122834276705       1.34797113835077
H        -1.41624682169778       0.92497146939642       1.12171806377423
H         0.04638109340431       0.30855713932011       1.95665263687467
H         2.29431039979029       0.14909073714731       1.86811846550573
H         2.07869923207619      -1.25415749889643       0.79210708851526
H         4.50819692763799      -0.81867516772453       1.27189038731936
H         4.13228822620484      -0.66333500466463      -0.46720265766955
H         4.36798024002926       0.79408490698390       0.52881139047687
C         2.05004305136579      -0.70880111991610      -5.08997432400103
C         1.70679823675954      -0.34648125031199      -3.64023428778450
O         1.43563663367169      -1.30961259336479      -2.85787194804412
O         1.70228155502605       0.89091537231421      -3.34511238878875
H         2.69186779559674      -1.60032833044633      -5.12348053074088
H         1.11937453773154      -0.95670135648981      -5.62564596680411
H         2.53285521617167       0.13363147494353      -5.60363898476546
