28
C8H12F6NP optimized with DFTB in AMS.
N         0.14053632153112       0.34914909990115      -0.54910007448345
C         1.42214501146139      -0.24755616337987      -0.95574919077179
C         2.40241165280315      -0.31852472369575       0.22209162338386
C         3.81211009644210      -0.59448563778104      -0.29247875711244
C        -0.28298139302422       1.47251914129598      -1.14296296971549
C        -0.53743615927219      -0.18387075144255       0.48178387110187
C        -1.42473451443949       2.11498299343277      -0.70388619773215
C        -1.68175774120686       0.41790364821612       0.95492279396943
C        -2.13319664633883       1.59380793705329       0.36582038896966
H         1.21870182333395      -1.24435811329649      -1.35964256118141
H         1.83572357205778       0.38240790014011      -1.74575166789471
H         2.09799497367215      -1.11173869483092       0.91100802284148
H         2.38970927689679       0.63305652064681       0.75612672928555
H         3.85013662639900      -1.53626641079025      -0.84223032990610
H         4.49856824346361      -0.65348207156268       0.55118187502480
H         4.13861201928367       0.21166941408498      -0.94939704088288
H         0.32163423496972       1.86747862088983      -1.94856560208612
H        -0.13827119376209      -1.08988161014356       0.91984958722998
H        -1.71709554023322       3.04334766744710      -1.17597191008592
H        -2.20171852226588      -0.02215436798657       1.79619086546905
H        -3.01335550718211       2.09711559904118       0.74629875706300
P         1.72853935842905       3.47106610126235       0.72121688909949
F         1.36189215877572       4.36122510311272       2.03013333349547
F         3.05002919766542       2.83588669081793       1.45441287859324
F         0.81272589060926       2.19928584607548       1.33013274785528
F         2.05989504396610       2.51195613607302      -0.63442024745897
F         0.36632669193263       4.01663438771695      -0.06361239711555
F         2.60748335973230       4.67369749440192       0.07278174364482
