40
C12H22F3NO2 optimized with ForceField in AMS.
N        -1.44958607690940       0.40001766940010      -0.04760212177478
C        -1.75551926334535      -0.87429758976375      -0.76143976839953
C        -2.53781520987236       0.56912369185150       0.95384090683424
C        -0.13519293050819       0.33335477064477       0.66269082194682
C        -3.04492304555815      -1.45037505083442      -0.19234517050691
C        -3.70166843988535      -0.29869772985462       0.52128711768264
C        -1.48317050887278       1.54669746608767      -0.99324590683468
C         1.09771697156265       0.28782679066575      -0.26980277969546
C         2.36357802144575      -0.08470223168212       0.51161402130477
C         3.59661885669855      -0.07552547183278      -0.39930622515940
C         4.85424953248921      -0.46655990070812       0.37167115864215
H        -0.95321375093618      -1.63698637454308      -0.64867264911030
H        -1.89183545431693      -0.72053634532258      -1.85726797601128
H        -2.86635816028520       1.62820433319387       1.06787737107299
H        -2.22574565656942       0.22428056913050       1.96775502982240
H        -0.11652579159611      -0.56708892837301       1.32035503102294
H        -0.02194703846286       1.21678560024452       1.33273449850305
H        -2.80571865469098      -2.25369348886920       0.53995758913610
H        -3.70186034353101      -1.86280848023324      -0.98869928953188
H        -4.35283842665185       0.26267505651280      -0.18398042884228
H        -4.30299041387724      -0.64552551786864       1.39001691318375
H        -0.79713946076778       1.38475573412013      -1.85233402473716
H        -2.50370912898316       1.68461783995683      -1.41593518888502
H        -1.18886605011703       2.49138876042750      -0.48380994379927
H         0.94873205892765      -0.45370679694652      -1.08077598345215
H         1.24813951134890       1.28784140487266      -0.73081551469601
H         2.23845257828203      -1.10016844832813       0.94869147265924
H         2.51260551362397       0.64208678197708       1.34064860564881
H         3.73847834524648       0.94094426969440      -0.82693956228168
H         3.45055757917365      -0.79245314477003      -1.23665631987749
H         5.03115216713772       0.24327461430332       1.20775643405618
H         5.73124905741723      -0.43924454769645      -0.30884451569813
H         4.75298615224639      -1.49523231210812       0.77881355227344
C         0.69374623085462      -1.79350465997488      -4.39063676471182
O         0.28066103311877      -2.05660957582682      -3.27259097886040
O         0.71752006871401      -2.66535118856197      -5.24418156514094
C         1.17028985217398      -0.40955396524478      -4.72252088314526
F         2.48768466380649      -0.46187590263301      -5.13864814330433
F         1.08152642381653       0.41783929688171      -3.61749243389920
F         0.39345921205277       0.11475231621120      -5.73883801683415
