35
C9H18F3NO3S optimized with DFTB in AMS.
N         1.17676467293205      -0.29841518379436      -0.09006575129069
C         0.84902897306270       1.11508307029508      -0.47761504119085
C         0.01459014055424      -1.19096854113056      -0.39524830143466
C        -0.43629353803692       1.62846222720653       0.15743966835849
C        -1.27657365192752      -0.72329034538088       0.26635752383672
C         2.35412686808789      -0.71182855971841      -0.94466566761941
C        -1.61262564958830       0.70573808450664      -0.15704341233614
C         1.53348539256936      -0.36479432537937       1.35325985314431
C         3.02027524274964      -2.01451019025539      -0.53796122620726
H         0.76105723866047       1.13230837527923      -1.56724816201099
H         1.69696672026131       1.73331547900727      -0.18005488463179
H         0.27449321441771      -2.19727944735698      -0.06112551870275
H        -0.10828573715422      -1.19959364696859      -1.48202457524064
H        -0.62615730036989       2.62450072403658      -0.25037274082721
H        -0.31775283692715       1.73209449282825       1.23893663606078
H        -1.19497318527838      -0.78623851457577       1.35451452529345
H        -2.07316616259106      -1.40276594198410      -0.04762831662877
H         1.98285438196474      -0.77263164990592      -1.97113763494984
H         3.09030424593411       0.09328829308645      -0.89083656916576
H        -2.50408320964768       1.04809221417437       0.37321348012507
H        -1.82372922418187       0.72975443927051      -1.23106621830734
H         0.73103805862301       0.05673204611591       1.95220507081625
H         1.68870266863033      -1.40333710094415       1.63411673795917
H         2.45222623311225       0.19752749532896       1.51236428897884
H         3.77388943008739      -2.22909620380968      -1.29566807764282
H         3.53589225823650      -1.90865359109115       0.41494203127554
H         2.32070123633479      -2.84821835576128      -0.49365089193239
S         5.28692700399456       0.73251847850474       0.60751950001082
O         6.59087321254971       1.09017086189095       1.08611539020181
O         4.48468890061943      -0.08758513732996       1.50903703258306
O         5.20196135020946       0.31337306793922      -0.77931622891798
C         4.32278632096900       2.34686126607914       0.59353677321559
F         5.05414481979917       3.41365919246525       0.85499678284035
F         3.31365838638549       2.30743905797279       1.48519160463192
F         3.73412591675764       2.52821360309865      -0.60237749849490
