38
C10H20F3NO3S optimized with ForceField in AMS.
N        -0.39742288016489       0.16764137909362      -0.07636110221656
C        -0.96626559779860      -0.88862982707282      -0.96937574639681
C        -1.45228420339321       0.41282743575733       0.95430225123555
C        -2.42970114727799      -1.07401162827545      -0.61483457071719
C        -2.49717751131713      -0.67929019681138       0.83349252538286
C         0.84441462572430      -0.33530387520061       0.59699415677218
C        -0.15180468502082       1.41343425254018      -0.87306145384149
C         2.02822272109382      -0.61255477491261      -0.36004658866618
C         0.43979595453852       2.58389041521733      -0.06703299274181
C         3.17959643568161      -1.28838010239876       0.38014659501127
H        -0.47237080401563      -1.87657540052719      -0.82267023455706
H        -0.86742440949644      -0.64960824882785      -2.05334476248212
H        -1.98027189699615       1.38142943147372       0.79630369183652
H        -1.05246936743382       0.44098664733118       1.99341395281550
H        -2.76552560776899      -2.12286588259420      -0.76979784868453
H        -3.05702027289794      -0.38620797998466      -1.22433476724654
H        -3.51102910038244      -0.31774915143343       1.11319083290844
H        -2.21736866351399      -1.54356307976552       1.47599938185912
H         0.61068808954745      -1.27495087213183       1.15033249296728
H         1.18691680393030       0.38495306782712       1.37282350776141
H         0.52576726689268       1.20771522519336      -1.73015554269294
H        -1.10585544558916       1.76403945553200      -1.33028014582547
H         1.71775676655859      -1.26902903191221      -1.19905875020058
H         2.41150720114304       0.33728258670393      -0.78656820799520
H        -0.17879874298349       2.82380160329598       0.82013414301748
H         1.47795756018946       2.36770386609469       0.25616879388655
H         0.47344244663385       3.48706593874026      -0.71190522563357
H         3.54550273401908      -0.63529373944805       1.20104431346709
H         2.84979540847702      -2.26045626481389       0.80481620362781
H         4.01715959342764      -1.47622953359810      -0.32443562711009
S        -2.01861850134272       1.69807033275444       4.89484346129338
O        -1.20471838492764       0.42611540985902       5.17521539081452
O        -2.93132213330886       1.80791657568260       6.12503400600902
O        -2.98341365728390       1.26065582231554       3.78310304211529
C        -1.03680646147300       3.17764452598369       4.53161294184587
F        -0.19739244505876       2.92225109623451       3.46528474270417
F        -0.28331570037085       3.51279336407212       5.63996462050679
F        -1.88153421214096       4.22384185240594       4.21458057297003
