32
C10H16BF4N optimized with ADF in AMS.
N         1.76573729865893       0.16904013123382      -0.28481820412271
C        -0.66980740183772       0.22982036844223       0.24146635034953
C        -2.06789837358367       0.00814541100482      -0.32817045818045
C         0.39457120248992      -0.02951597346498      -0.81518092927796
C        -3.15116924556327       0.25335791653331       0.72177082452418
C        -4.55816656118412       0.03404591305805       0.17560897386397
C         2.38831515994827      -0.85106784510814       0.34421878444067
C         2.32432284217618       1.39809364019720      -0.32415495823498
C         3.64221790895667      -0.68063862663754       0.89094368305638
C         3.57674623217153       1.61858651104455       0.20783772632926
C         4.24616758078388       0.57013989054952       0.82881820868723
H        -0.48652572607305      -0.42385724799187       1.10950483662321
H        -0.55320680837487       1.25428088160161       0.62993924285931
H        -2.16242507530260      -1.02571960772490      -0.71370360240692
H        -2.23815616977667       0.68018314597719      -1.19174413767542
H         0.34634240217966      -1.06181157089606      -1.19571764545998
H         0.28478025767306       0.64667578924548      -1.67721646464518
H        -3.04909752607433       1.28294151782337       1.10776937552101
H        -2.97118762071511      -0.41318724552273       1.58382083972106
H        -4.76471562694333       0.71155946912494      -0.66852208609634
H        -5.31940353166756       0.21735604436664       0.94919499533598
H        -4.68590506885319      -0.99918740190039      -0.18511173444041
H         1.83823668207799      -1.78699686276075       0.39748773847713
H         1.72543860345560       2.18218221588481      -0.77986564443617
H         4.11094011729607      -1.51455862095945       1.41119193897602
H         3.99260382931285       2.62463681120068       0.18347364154212
H         5.21978644234083       0.73558472313006       1.29041089496796
B         1.52230346662213       1.21253650917483       3.06741543859913
F         2.92992647327190       1.33194458426458       3.23898054797085
F         0.82297109902193       1.53256695952548       4.23313762694335
F         1.22305263321140      -0.14417777881810       2.67526349307710
F         1.11867682460068       2.09205745320177       1.99479285951108
