57
C15H28F6N2O4S2 optimized with ForceField in AMS.
N        -1.54240923495097       0.09453610191767      -0.07752896083746
C        -2.55260433530918       0.49093486085107      -1.11187947982066
C        -1.78930153837122      -1.33208340117085       0.31005220581932
C        -0.19704998898072       0.19094351569631      -0.74134382995774
C        -1.62016610947143       0.96702883464976       1.14546145803077
C        -4.01295952865761       0.28524523916890      -0.67640849785834
C        -3.23424892424093      -1.61180293924216       0.77477868150317
C        -4.25037334408212      -1.16695589924476      -0.27376199613059
C         1.02778737148176      -0.12248693349062       0.15355009253566
C        -1.28678037012164       2.45385123110327       0.92860627362918
C         2.32812511053923       0.04545084199574      -0.64493692510111
C         3.55618705789138      -0.29603002736897       0.20681156436657
C         4.84742687747254      -0.09541771887237      -0.59443662565901
C         6.07387835040098      -0.46128592457755       0.23433995579641
H        -2.40619462991184      -0.11390011909114      -2.03780030037940
H        -2.41775627208157       1.54562121941970      -1.42973348343671
H        -1.11504752676142      -1.64180505811233       1.13746105326207
H        -1.57734248559798      -2.01016825316172      -0.54877438733859
H        -0.05692607218502       1.20399904677877      -1.18046154451940
H        -0.15504566183630      -0.50674761072134      -1.61010030288465
H        -2.62962289274615       0.93742915189790       1.59744802812662
H        -0.95260259358096       0.57782593542587       1.94418288733628
H        -4.67994789408920       0.53284293866028      -1.53035331040957
H        -4.28751513803714       0.97116466714445       0.15090090496816
H        -3.44396020064101      -1.11457535780172       1.74465110490633
H        -3.35300603016790      -2.70321435462696       0.94680626478486
H        -5.27881637871027      -1.27594979511030       0.13335908196896
H        -4.16529877244560      -1.81905440749296      -1.17091297568853
H         1.07016465787420       0.56665853532274       1.02100837493440
H         0.97739684681485      -1.16659422153816       0.52513841121263
H        -0.24204762264858       2.59995184708386       0.59029956932582
H        -1.98856379115856       2.93324065467579       0.21857106693060
H        -1.39354985720285       2.98618169307854       1.89735939612854
H         2.40844203540220       1.09776783081440      -0.99729456104765
H         2.30519542145920      -0.62205239755407      -1.53463873969336
H         3.48928105346256      -1.35538968292085       0.53957685584894
H         3.57678388965745       0.35743984494290       1.10681599374947
H         4.82760387629772      -0.73269126777550      -1.50544041057288
H         4.93124953227563       0.96731627628277      -0.91110813193200
H         6.02673746574581      -1.52629228183099       0.54592967915636
H         6.98689480333005      -0.31392958196236      -0.37852411386929
H         6.13839254120756       0.18421970792591       1.13640606204083
N         8.89704058130843       2.33829693888019       3.31622146358818
S         9.29472210476576       3.14954460484184       1.94885715362585
S         9.93106518299228       2.15566005584341       4.57488305091797
C         9.94940389540134       2.00155674953869       0.75581324125256
C         9.54830144337313       3.36508244972221       5.82411380584421
O         8.05971520317140       3.78866320001903       1.38022172913980
O        10.32165153232961       4.20911029153428       2.23891821516687
O        11.35612794929345       2.33084067872244       4.12759097349145
O         9.75370148532171       0.78369874957814       5.16069103502102
F        10.25659479007184       2.67284229822633      -0.41233347363608
F         9.00738692959285       1.02857359558036       0.48930605069530
F        11.09093441001381       1.40540562366245       1.25603350208746
F        10.42671692433032       3.22966139167723       6.88229924257481
F         8.25604073589160       3.17150118384722       6.27406891535680
F         9.66263969541748       4.63588828585727       5.29355749434881
