41
C13H24N2O2 optimized with DFTB in AMS.
N        -1.35389935370420      -1.18585641760074       0.52517169978036
N         0.66646065931702      -0.68184162983247       0.99791764575152
C        -2.80326005927789      -1.08659410471259       0.43500918788485
C         1.82797284954569       0.03805371393649       1.50434763549083
C        -3.21620241607980      -0.28154383828476      -0.80143679239814
C         2.51864876816719       0.80333022536295       0.37277870497796
C        -0.59893947925106      -0.30781830850250       1.19625810595991
C        -0.56703037955447      -2.11151548939591      -0.11105628744673
C         0.71704476825584      -1.79206799855226       0.19209911770023
C        -2.70507824110524       1.16183002940586      -0.74621950919955
C         1.60021507584275       1.86932055731195      -0.23300323422347
C        -3.25504872445306       1.99006150309423      -1.90478073226560
C         2.32178482478116       2.68123450482468      -1.30534201333069
H        -3.21759402073450      -2.09762419124143       0.38826395282114
H        -3.15688437143169      -0.59199191818450       1.34405206036261
H         1.46889551024137       0.73369264106066       2.26812200937241
H         2.51469252093841      -0.68558165276424       1.95334862776669
H        -4.30970490842841      -0.28476424350347      -0.84587781640100
H        -2.83998067095695      -0.77899141954774      -1.70149442883299
H         2.84488533084485       0.10106207984931      -0.40239427092098
H         3.40968002935547       1.28030099298663       0.79211254010658
H        -1.10331522080409       0.62689457442145       1.79112379701482
H        -0.97599683588420      -2.90970729594235      -0.70595539697465
H         1.64453257549804      -2.26049674517808      -0.08814762435634
H        -2.99782992059867       1.61674611585299       0.20508121386344
H        -1.61148204356729       1.16063593000499      -0.79011023357226
H         0.72305393339449       1.38368631830172      -0.67412815592078
H         1.25001593149809       2.53327160290563       0.56244636493517
H        -4.34477319929629       2.02658001120983      -1.86634206294678
H        -2.95577151823713       1.55996126920770      -2.86216413391070
H        -2.87072064060036       3.00819446158491      -1.84553297804239
H         2.66272526689966       2.03417419631933      -2.11580278526077
H         3.18783375079637       3.19165260157887      -0.88147767995679
H         1.64695764765615       3.43041861562015      -1.71998228398904
C        -1.61633679331355       3.78642193612931       3.35155344156081
C        -1.01602840410839       2.52377645914106       2.72030992249602
O        -1.86115459996546       1.64653039469534       2.34970448032674
O         0.20686542597596       2.43226120807528       2.60027603932786
H        -2.10887505967976       4.36530325317246       2.57101188192024
H        -2.35852763547755       3.50591864649954       4.09680136158544
H        -0.83238155819847       4.38631120468973       3.80867803544396
