48
C12H28F6NP optimized with DFTB in AMS.
N         0.53843579839129       0.09068382720414      -0.33116379127058
C         0.07437778649636       0.58829945466113       1.01905871366794
C        -0.55585262143532      -0.64160524714656      -1.05274014874150
C         1.69133324606482      -0.86014486804465      -0.11506785612198
C         0.96033873268161       1.27475749474354      -1.16015519444876
C        -0.64172880517500      -0.44065929962138       1.89219404880964
C        -1.83897709652594       0.15636084919942      -1.28526449597602
C         2.37577201831378      -1.37658404223247      -1.37676745060455
C         2.17063344922705       2.04653894721524      -0.63562635303726
C        -0.79062912681551       0.13499907387757       3.30143603633786
C        -2.88482335900939      -0.75151722435804      -1.93296533088913
C         3.52778068377904      -2.29227357373947      -0.95722800720858
C         2.46578056849251       3.21145603986089      -1.57972703007416
H        -0.57827218991929       1.44648677213198       0.84066387841441
H         0.96667765911548       0.93326174665268       1.54114017504496
H        -0.77579092307448      -1.53890965698961      -0.46981141216553
H        -0.15093620912596      -0.95276098385224      -2.01839966574604
H         1.30230901653097      -1.70007802396428       0.46221953380201
H         2.41693952626356      -0.33593313723555       0.50436778854912
H         0.10157213769184       1.94861682399607      -1.20857460379601
H         1.16039539366657       0.90533675709195      -2.16941912735281
H        -1.62988051498392      -0.67795460738764       1.48682240301402
H        -0.06206717914764      -1.36320567196801       1.95217505828054
H        -2.23472194339655       0.54113356288947      -0.34313176938503
H        -1.64655208431164       1.00577075346499      -1.94554186081703
H         1.67867549479569      -1.93862643678847      -2.00562011078108
H         2.77619779627276      -0.54881048797470      -1.96773710788606
H         1.97128301538564       2.43557131375751       0.36383602682278
H         3.04837938444263       1.40155692706398      -0.57350981739208
H        -1.33364024346110      -0.57191394142926       3.92763253432690
H         0.19117511596165       0.30881255757368       3.74081661386008
H        -1.34012132765622       1.07694215188138       3.27731666458847
H        -3.79961020543848      -0.18738218414623      -2.11044252505463
H        -2.52162885947507      -1.13602125074399      -2.88650725920857
H        -3.11618125544440      -1.59457021751049      -1.28142696359604
H         4.06359437814256      -2.63747832740569      -1.84067328776291
H         4.22009283615064      -1.75599050695031      -0.30918031857076
H         3.14718144288747      -3.15805370907299      -0.41511805547280
H         3.34185463591276       3.75143945839153      -1.22329166558030
H         2.66551154039772       2.85097921927310      -2.58967353430721
H         1.62125847675615       3.90098962457802      -1.61294816425962
P         3.48845893432738      -0.04856242165205       3.05907533346188
F         3.97603226924829      -1.24443310458897       4.04226835344090
F         4.81962872265380       0.83135699044205       3.36082832255586
F         4.22945742652948      -0.77301751300221       1.76066983488849
F         2.94576956756999       1.15427121401165       1.99789460340087
F         2.09711262839414      -0.92161865492888       2.68442014145343
F         2.66417658985226       0.68660026057214       4.26759011148692
