52
C14H18F18NP optimized with DFTB in AMS.
N        -2.14956252212324       0.18721943064338       0.12503359034084
C        -2.50207283454187      -0.98362447814066      -0.74569082784059
C        -0.73838530040739      -0.11132428502128       0.53034212581139
C        -1.24077595021023      -1.28641391044775      -1.54532135640375
C        -0.08289820802174      -0.72201128165929      -0.70780898937032
C        -3.04414608865326       0.24549967634141       1.32803799969240
C        -2.20778727333415       1.45458131512265      -0.68605310471711
C        -4.51881641892397       0.36482990398994       0.97739793899618
C        -1.96344698129429       2.73020393007848       0.10436694616347
H        -3.35503415227950      -0.73297007969084      -1.36945013147275
H        -2.76190511228858      -1.81568964275046      -0.08779489382158
H        -0.77532368747917      -0.83391405860039       1.34874344472904
H        -0.24978646618612       0.79748463671458       0.87959913626866
H        -1.28446470655714      -0.81025147876476      -2.52577960063485
H        -1.14326286981807      -2.36236734741509      -1.69585325388330
H         0.61872815445748      -1.50280647198212      -0.40956084165503
H         0.47062758202605       0.03474569496775      -1.26700428565927
H        -2.87218789417059      -0.67554531217095       1.89189157163627
H        -2.71237054453301       1.08794522583590       1.93874788351652
H        -1.46095841087202       1.35471218606296      -1.47456780429420
H        -3.19125978700404       1.49593191805996      -1.15204956458589
H        -5.07795400458837       0.47345157970157       1.90615744727947
H        -4.72336322377561       1.22750676767144       0.34825254654650
H        -4.86906634990585      -0.53064006286732       0.46850685923823
H        -1.86528814570382       3.54292220051857      -0.61480581975014
H        -2.79995719257015       2.96124376698265       0.76194893502770
H        -1.05006549410575       2.68317547973999       0.69579392502667
P        -5.80576848934840       0.25222767231648      -3.45974197400616
F        -6.39111755298627       1.81747021800232      -3.36074805554129
F        -4.72476545796576       0.62388569894944      -2.15278381236604
F        -6.82172668126570      -0.14895785155790      -4.71358969947818
C        -7.19060710305051      -0.25639302329065      -2.17138191595479
C        -4.52158470252094       0.97964464925204      -4.75909572996442
C        -4.96869343437299      -1.57662398913384      -3.41708996291139
C        -8.42827743320874       0.66995909696899      -2.02532652647081
C        -3.28693508937846       1.75588472472842      -4.22874552814214
C        -5.34114865290860      -2.71454453104893      -4.40485211176319
F        -6.69076661333187      -0.38227775249091      -0.92019898857591
F        -7.65428985930146      -1.46609329197859      -2.52974470059144
F        -5.17830739923061       1.83212056718847      -5.56006044231253
F        -4.03856061141786       0.00148143114083      -5.54690464057113
F        -5.14297437031711      -2.08668314899977      -2.17415211751310
F        -3.62533079392034      -1.40551000080772      -3.53805061548576
F        -9.37543933987038       0.04844612770261      -1.31654644507421
F        -8.94856064244721       1.00110691711069      -3.19834504449730
F        -8.10589477859660       1.78359464660354      -1.36748980364639
F        -2.62429515256688       2.34150334737768      -5.22233305361584
F        -3.61632502993268       2.70102106920874      -3.34892133115480
F        -2.42106563742700       0.93071354962226      -3.61095201787823
F        -4.51268364639942      -3.75122372042346      -4.22186191523451
F        -5.22960817795257      -2.32541712917240      -5.66859882631560
F        -6.57948083521722      -3.14608500078859      -4.20581502971941
