31
C9H16F3NO2 optimized with ForceField in AMS.
N         0.83331758988207      -0.00005000290915      -0.03303440877481
C         0.07730150559397       1.23183010821663      -0.40150895843509
C         0.07075267423302      -1.22627089084735      -0.40679119630845
C        -1.35464576099930       1.26218755324617       0.16107752624590
C        -1.36140234665747      -1.25190853771656       0.15476469807580
C        -2.12726562365740       0.00804248232180      -0.24090508206959
C         1.17022673929726      -0.00510962606118       1.41375987086192
C         2.11006117542121      -0.00021135189667      -0.78911816211644
H         0.00235730494831       1.31903036437675      -1.51044856743191
H         0.61444777910599       2.14030900143428      -0.04565497116723
H         0.59944633179499      -2.13765379816437      -0.05022228971292
H        -0.00233436449104      -1.31096604269639      -1.51592507405090
H        -1.88204607313797       2.15319992183886      -0.24313259204955
H        -1.34164080958562       1.36626602883292       1.26593167749228
H        -1.34936018393207      -1.36194304672876       1.25909542543288
H        -1.89292200090313      -2.13840821344396      -0.25406155359050
H        -3.11949538422363       0.00912564250751       0.25935925539539
H        -2.29712116290965       0.01099392187883      -1.34002816958304
H         0.26742981095667      -0.00604903134569       2.05529934166981
H         1.76671278769692      -0.90620813944907       1.68113466051244
H         1.76868857904374       0.89266392936059       1.68683049578144
H         1.92879770608018      -0.00324764209278      -1.88754915645617
H         2.71757871107698       0.90226558593932      -0.55159601804703
H         2.72142649147196      -0.89812436583101      -0.54661854028827
C         3.37806585349773      -4.21432432288967       2.00965321053584
O         2.24939918647653      -3.91997228714637       2.37105023767096
O         4.18146539290569      -4.63750865835163       2.82545429524978
C         3.78392162253270      -4.05821114304811       0.57355152529219
F         4.81636583570404      -3.14278007514493       0.48275625316819
F         2.71902904981670      -3.61350953323501      -0.18894326251288
F         4.21048405146062      -5.27657513385499       0.07776276330996
