35
C11H17F3N2O2 optimized with ForceField in AMS.
N         1.01296644738201       0.34577291154501       0.45012160121879
N        -1.01744291478090       0.33916926605852      -0.45662415300722
C         2.26378354465917      -0.12165352902885       1.04469033490500
C        -2.26937242938165      -0.13665261053817      -1.04213039615549
C        -0.00049098292625      -0.41820596297790      -0.00160210682394
C         3.44447939616065       0.09828504071509       0.09262575666185
C        -3.44414150029159       0.07418749829363      -0.08063215156941
C         0.62512795947947       1.62526833103227       0.27528280494335
C        -0.63569080267097       1.62116769369048      -0.28701107206046
C         3.30781205075233      -0.72540549450045      -1.18695115202645
C        -3.29019278178476      -0.74880834656053       1.19762994921695
H         2.18745729073172      -1.20246823252576       1.29640253716642
H         2.44595529199832       0.42872003352868       1.99312235180305
H        -2.18721364179265      -1.21678090547319      -1.29492900307885
H        -2.46272664525646       0.41286762362155      -1.98881643551920
H         0.00122886679744      -1.50094817114817       0.00235476581753
H         3.52696119429929       1.17582174795684      -0.16663755103335
H         4.38053826844502      -0.20210698146514       0.61105071894715
H        -3.53259624422604       1.15108048686225       0.17945129294802
H        -4.38209634013300      -0.23324297614377      -0.59147629557633
H         1.21148406815814       2.49515378469315       0.54124124678006
H        -1.22714746154597       2.48717602038232      -0.55434930935022
H         2.44426064690417      -0.36875342299408      -1.78728462782327
H         3.16664388302559      -1.80036722764789      -0.94405165341837
H         4.22899947501566      -0.61751389875342      -1.79662634228616
H        -2.42358244823870      -0.38602905538429       1.78982583481630
H        -3.14345820540464      -1.82257618633456       0.95278137213815
H        -4.20594033181550      -0.64840648738904       1.81713515238163
C         5.91950093492387      -1.11791071457931      -4.78399022166655
O         4.79047372968771      -1.44250190600569      -4.45096851543857
O         6.80798474090977      -1.95511830462778      -4.79740602387779
C         6.22010195305354       0.29756959945338      -5.18019935711250
F         7.21451777929229       0.80570792296379      -4.36473958612152
F         5.09067364212776       1.08861451658539      -5.05839978855969
F         6.65077101474516       0.32755113039563      -6.49377419033893
