28
C8H12F6NP optimized with ForceField in AMS.
N        -0.48809379027598      -0.00557695634015      -0.38821211179680
C         0.93676832384994       0.00680989390556      -0.73934631859107
C         1.79142469810922       0.00210251786128       0.53225170068834
C         3.28075111069165       0.00679144708985       0.20176481381200
C        -1.14268744255790       1.17524027732822      -0.16430430956372
C        -1.14511812814739      -1.19885428637051      -0.25540763088283
C        -2.48990234652317       1.17966555404374       0.20312628882238
C        -2.49342410376213      -1.22870380570697       0.10632408007373
C        -3.16727688276504      -0.03069123851837       0.33554445521632
H         1.18708220141656      -0.88045607148842      -1.36370167636139
H         1.17233805241918       0.90656816855690      -1.35127550552558
H         1.55553663719926      -0.90309896323442       1.13316211400907
H         1.55191310450914       0.89915390157449       1.14369437558000
H         3.54785752391333      -0.89549256547341      -0.38814000312879
H         3.86948746156663       0.00269721323571       1.14297778862374
H         3.54416821718075       0.91638593031516      -0.37840264297092
H        -0.62395810685068       2.12192864330643      -0.26359210999552
H        -0.62681520511128      -2.13658588336284      -0.41988040671493
H        -3.00330368792347       2.11483858514567       0.38270150942631
H        -3.00769227518576      -2.17455819203051       0.21449409087318
H        -4.21073561129672      -0.04020774740427       0.62004525942600
P        -3.78286909791982       2.86257694666896      -3.22555792213531
F        -4.49262809793782       4.36022749866597      -3.67684162711034
F        -4.59218229486221       2.23539839128520      -4.60455944294918
F        -2.35864538436869       3.16679760465026      -4.13591950908979
F        -3.15924658475011       1.29924750857195      -2.88433772831197
F        -3.00096768412340       3.63858506770124      -1.90815582026832
F        -5.08833565789408       2.48906739802329      -2.17343214075461
