35
C9H18F3NO3S optimized with ForceField in AMS.
N        -0.38583787925916       0.38008417670073       0.06783584738782
C        -1.44969911695349       0.64498916286810      -0.94152488274767
C        -0.85941005440894      -0.79730577640342       0.85429279386221
C        -2.70473935609832      -0.07563267162152      -0.49313155427549
C        -2.18405427706291      -1.26414965133055       0.26922644149011
C         0.89836981377349       0.08908541232800      -0.64140191020182
C        -0.24710175394253       1.57024468063497       0.94765949613336
C         2.12888474028069      -0.05575930393871       0.28295399823803
C         3.32901078899731      -0.58974927415134      -0.49348741232521
H        -1.18003383658343       0.24431030488152      -1.94710995274951
H        -1.65823663254603       1.73069728117296      -1.08408298595292
H        -1.02334523577980      -0.54681164094278       1.92827718096299
H        -0.14547358110987      -1.65013314381057       0.83647294675302
H        -3.33155718522718      -0.38719928199214      -1.35739629858330
H        -3.29721893190897       0.57909283929119       0.18302790542629
H        -2.89659077827057      -1.58447699667408       1.06038504142877
H        -2.00665503531474      -2.10962695838797      -0.43260055104560
H         1.11938222136772       0.90279617976495      -1.37050468771797
H         0.78889083287695      -0.84818921058182      -1.23617945499088
H         0.18850438729119       2.42901156783223       0.38943842347083
H        -1.23580344972249       1.88580489207467       1.35078439485837
H         0.40432996356280       1.35444324416039       1.82255202173254
H         2.40685848097404       0.93529919401348       0.70081206437901
H         1.91956893340298      -0.74395810670288       1.12781015393283
H         4.20938134547049      -0.64265024342017       0.17641067354529
H         3.11732012736176      -1.60936264298353      -0.87992917284004
H         3.57173869428485       0.08381420022194      -1.34280831001518
S         6.66982846077569      -1.34388396818064       2.31880074821945
O         7.05436623145496      -0.30576791036129       3.38269384585509
O         6.73562843837088      -0.54174637374822       1.01116614954505
O         5.16199331947153      -1.52983883735199       2.54254368910377
C         7.64923073954327      -2.87086411279664       2.33691772077232
F         7.54166545789806      -3.47339322161286       3.57510444949898
F         8.97396131253883      -2.57205672061204       2.08467886154100
F         7.17951433069092      -3.73217845523999       1.36446326300846
