49
C15H28F3NO2 optimized with DFTB in AMS.
N         0.00089194661315      -0.04494518386941       0.01653573294663
C         0.18968254105031       0.90145851567325      -1.13680421298772
C        -1.17425677510793      -0.93131462831371      -0.27345209295142
C         1.24940706774715      -0.89076093237236       0.07688513013946
C        -0.22776893116706       0.68566148665177       1.31305334536155
C        -1.05405382596390       1.71875255314527      -1.44751332995266
C        -2.45359293577533      -0.16101463793003      -0.58622253226832
C        -2.24360365540172       0.80946891313341      -1.74771726096371
C         1.31780895225477      -1.86173147465436       1.25105728980801
C         0.91508015161163       1.58462246831845       1.75663758249542
C         2.53016079576209      -2.79634433876306       1.11741573722408
C         3.88650452113690      -2.06864557520877       1.16671007388643
C         4.52065038006286      -1.89410577676811      -0.21769321501415
C         5.84856301961072      -1.14657890576440      -0.11939545998449
H         0.45679213077720       0.28803887430700      -2.00115779711592
H         1.03010198093017       1.56375150073251      -0.89669002828341
H        -1.33035008252192      -1.57795054903059       0.59220561658330
H        -0.89827689660875      -1.55094103956911      -1.13137587965856
H         2.09392730051435      -0.19545548254355       0.11609977222163
H         1.29423343959744      -1.43959358601990      -0.86719325512207
H        -1.13253428720216       1.28330182114909       1.19061329049672
H        -0.42855810214411      -0.07756286363364       2.06908837858732
H        -0.82610787328092       2.33511090842495      -2.32054840357803
H        -1.29225107741148       2.39330310621327      -0.62101788494754
H        -2.80280857897571       0.37938688861538       0.29764335531313
H        -3.21939367345499      -0.89672356183864      -0.84708276674084
H        -3.14636285372840       1.40690851668784      -1.89477791628327
H        -2.05394516310670       0.24509535925108      -2.66644675994159
H         1.40130999858110      -1.31240832237586       2.19253840878091
H         0.41465474274695      -2.47818370777416       1.29878678274361
H         1.84611358156173       1.03619059670015       1.87840638520026
H         1.08615617554948       2.39431776264817       1.05004043894181
H         0.63543855773690       2.01392370027123       2.71874480469229
H         2.44247214834773      -3.36933048161940       0.18782890068108
H         2.47370821001393      -3.51035271014685       1.94496933798660
H         4.57114302959175      -2.64778065835282       1.79492879052387
H         3.76671511390978      -1.08667471578440       1.63445578589386
H         4.68076964299046      -2.87821093015358      -0.67358650152834
H         3.84447597989929      -1.32968257583699      -0.86724620738427
H         6.55765339067630      -1.69552314661785       0.50220836971772
H         6.27605175734566      -1.02016988107371      -1.11357224088606
H         5.68710974235741      -0.16026240729760       0.31473415449634
C         3.48043959092875       2.16793474011474      -0.41153812494457
O         3.58011756262834       1.09832788094813       0.19660038259060
O         2.47951301164343       2.82179563956921      -0.71058520204399
C         4.86042939396088       2.79995942517569      -0.91740524238577
F         4.91507610713960       2.81847398071357      -2.26332521988534
F         5.93526734722764       2.11430353033154      -0.49587729104513
F         5.01536982824506       4.06654700623713      -0.49992397021549
