34
C8H11F6N3O4S2 optimized with ADF in AMS.
N        -0.61082138298836      -0.53596637116232       0.14496415184004
N         1.50428865540756      -0.98498886981030      -0.03626104795762
C        -2.05766650569085      -0.73927970201614       0.35242371008058
C         0.27903593186251      -1.52502976189578       0.00369637096075
C         0.06101712953191       0.66725103044111       0.19438612322119
C         1.39121945055626       0.38538407748006       0.07524713911304
C        -2.45747137667478      -0.41563768363573       1.78139697363016
C         2.74634248055370      -1.74817034170696      -0.14246080201015
H        -2.58007276073943      -0.11682016618545      -0.39077606310290
H        -2.24922939008958      -1.79782105768141       0.12794294388653
H         0.02950145976745      -2.58266904014962      -0.01060721729844
H        -0.45559381279060       1.60942826082148       0.32765535349480
H         2.25990177170530       1.03151901511580       0.08546329477225
H        -1.90425979914071      -1.06010450860531       2.48145471620836
H        -3.53437049783022      -0.60508063072618       1.89942930132736
H        -2.26720578474989       0.63938733641356       2.02791799691422
H         2.53688913293094      -2.78048270747585       0.16418110845437
H         3.12083310937152      -1.70429051592982      -1.17353740042493
H         3.47563767434985      -1.31920845074393       0.55345555574834
N        -0.27036260038734      -2.68446660861818       3.17215063338489
S         0.62855377878818      -2.34539293041095       4.47969979738301
S        -0.00584776243076      -3.94187454574489       2.21322501750788
C         1.96983535687473      -1.19216077666728       3.81073296175656
C        -0.38374428860448      -5.53942754887513       3.18983488677445
O        -0.15363170022651      -1.45387609019515       5.31993221882001
O         1.36407268691452      -3.47219085321095       5.03399599319329
O         1.36666239660322      -4.11719491316724       1.72542751618594
O        -1.07483540273067      -3.89894013430202       1.20174749345731
F         2.67571780976972      -0.67130266409770       4.83872860887208
F         1.42200457498288      -0.15856431309551       3.10599785838113
F         2.83666362638582      -1.83676428917018       2.98587848051259
F        -0.85465402460064      -6.46064167907515       2.31330495503071
F        -1.32591622409389      -5.30899498465383       4.12809389805530
F         0.72125284261264      -6.03041387726303       3.77364352872690
