44
C14H26N2O2 optimized with ForceField in AMS.
N         0.23303452363922       2.30105266570037      -0.22936440237058
N        -1.84409833197522       1.50493460536496      -0.21079313627751
C         1.62308086164769       2.49893182220709      -0.63865246576117
C         2.55272305462919       1.49102667288035       0.05514346263116
C        -3.03652909894460       0.75861674270582      -0.60967154008427
C         2.12877579043161       0.04164890098697      -0.22366193123178
C        -3.08918817364428      -0.61055349062520       0.08384238100901
C        -0.73530317864153       1.70162535826098      -0.95017370409367
C        -0.28493690075190       2.50180211783460       0.99948848434435
C        -1.57399541543799       2.00921663207541       1.01057415185675
C         3.11907780861829      -0.96386002879315       0.36901049077934
C        -1.91913541314640      -1.51134678830613      -0.33657767053735
C         2.63226246166274      -2.39510286488962       0.15255890953035
C        -2.00335643693802      -2.88134967629561       0.32759362298914
H         1.93856981901421       3.53345263088723      -0.38372810251257
H         1.71436525982275       2.38136442208567      -1.74106651518244
H         3.58834895190413       1.65291296546082      -0.31498420195189
H         2.54604423314713       1.67649841885198       1.15151555638219
H        -3.94109438091073       1.34485672558317      -0.33990468620645
H        -3.04675243303354       0.61498432899430      -1.71272170442352
H         2.04957512156033      -0.12029103202683      -1.32138252875925
H         1.13496068290460      -0.13485977388584       0.23562588806373
H        -4.04691608608112      -1.10565682004202      -0.18700541383931
H        -3.07692941491319      -0.46819166176233       1.18663872976168
H        -0.60851959085750       1.34563175523695      -1.96541793686532
H         0.25092305894848       2.92536926722625       1.83901747397952
H        -2.24507488723510       1.97836431536273       1.85912628653584
H         3.23007010265284      -0.78352541049246       1.46049204028663
H         4.11251181621063      -0.84077710830951      -0.11410732800981
H        -1.92079608057964      -1.64371554727972      -1.43980837462571
H        -0.96012070714123      -1.04162479363388      -0.04138399621889
H         2.53299299456501      -2.60874971773182      -0.93314849382465
H         1.64726860889333      -2.54700280687674       0.64467631345601
H         3.36134312074424      -3.10819260149437       0.59103411385201
H        -1.99521603956739      -2.77543056386859       1.43343777764102
H        -1.12771574486854      -3.49408946570475       0.02499318659951
H        -2.93078316589941      -3.40533616010481       0.01361067464380
C        -1.93455986184857      -1.29822516477254      -4.58895915337506
C        -2.71186008459942      -0.69817567879236      -5.71785926493562
O        -2.29237936098882       0.29767636211010      -6.28450512916777
O        -3.76376878505468      -1.20192380285680      -6.07728525190102
H        -0.95121529975311      -1.65328081035615      -4.96234818250829
H        -1.77122628357802      -0.53418550748989      -3.80023910102871
H        -2.48327942510643      -2.15810496982463      -4.14835866914942
