46
C14H29NO2 optimized with ADF in AMS.
N         0.82076832346688      -0.29072885522441      -0.43767569074031
C         1.63679931408741       0.12737366106113      -1.68263581222541
C         1.74634834609347      -1.21326762596545       0.33755198413710
C         0.53160491333449       0.94215853686839       0.41290314094344
C        -0.43840386259318      -0.99813561383017      -0.85510734816402
C         3.06200816188793      -0.38802623534868      -1.46069938293216
C         3.13481526507928      -0.67966520970734       0.04190112306265
C        -0.45440811499792       1.90660669089039      -0.21741148215714
C        -1.30987989638240      -1.47649833365927       0.29344375815800
C        -0.46755356046034       3.22024069254494       0.57247076599910
C        -2.52154797130197      -2.24472201742106      -0.23792261629509
C        -1.17047004785948       4.32601772659409      -0.20859792151779
C        -3.43745288583889      -2.73081483124497       0.88100593873304
H         1.63869699468939       1.24246855130698      -1.73640021657861
H         1.14435158394641      -0.31036459075426      -2.56150305171563
H         1.60896419410485      -2.22356889507118      -0.08195898025734
H         1.45806442286828      -1.21134503901490       1.39677511539109
H         0.18599729856746       0.57674666687529       1.39231152019520
H         1.51350737857685       1.45846798412593       0.50865503135634
H        -0.99139069728922      -0.29727458562671      -1.49727762595613
H        -0.11860668551502      -1.84809208622924      -1.47971165437074
H         3.25631307901969      -1.30126109339921      -2.04807014512310
H         3.78491397587175       0.38880181376607      -1.75122619991115
H         3.31791407817342       0.26567892233463       0.57794671090238
H         3.91192880217706      -1.41059814412271       0.30894753066523
H        -0.11094406511817       2.14811781155516      -1.23643216632235
H        -1.47872034921189       1.49270936195069      -0.26880887310280
H        -0.73322774188100      -2.13227412833681       0.96885852571725
H        -1.65843042765993      -0.61759198499506       0.89068807925805
H         0.57743874468685       3.51740799277865       0.76086492468196
H        -0.94814408765107       3.06824305270692       1.55683583004574
H        -3.08962309562979      -1.59548524296282      -0.92842558699300
H        -2.17362537347165      -3.10709497915009      -0.83492080879412
H        -2.20566509621027       4.04620591590824      -0.46622586658965
H        -0.61945891157841       4.51635689936241      -1.14334564458204
H        -1.20526564374944       5.26350673054681       0.36668534617658
H        -3.82657391002375      -1.88448053829695       1.46862181715441
H        -2.89808574699332      -3.39916559509870       1.57098589839243
H        -4.29698093424815      -3.28571477928022       0.47669476690971
C         3.65033535215889       4.58832175021040      -0.86847374538790
C         2.86049965417804       3.27520388328802      -0.79870467745177
O         2.03478847198098       3.06648830007864      -1.74129369617902
O         3.10273990162613       2.50638437614285       0.18550552924825
H         4.45376685118667       4.48359895516314      -1.61526090599070
H         2.99949303440123       5.40748783879676      -1.20709790373831
H         4.10409773620183       4.83409406698369       0.10103215944834
