56
C16H19F18N2P optimized with ADF in AMS.
N         3.25541341119115      -0.96598282604160      -2.00535248075040
N         2.14373638706106      -2.18451406851806      -0.59643135690353
C         4.20145644867077       0.03437696096085      -2.52804243637443
C         3.56605624297996       1.42028378520856      -2.59667014165978
C         1.67586813899107      -2.76526176196184       0.67208392507466
C         3.15492968871995      -1.31522429355175      -0.71676442101517
C         3.10052915780427       1.94953060962460      -1.24117652004424
C         2.27374204658150      -1.61690266229184      -2.72484937046075
C         1.57486477946244      -2.38567337565997      -1.83834171645142
C         0.44885909880638      -2.03036451900361       1.20719380257815
C         2.58325600330651       3.38290252820434      -1.32997656163031
C         0.71413766974480      -0.56247567741764       1.52377513509063
H         5.06970484667954       0.02586051539555      -1.85483961756024
H         4.52688710018705      -0.32092264549286      -3.51712940519264
H         2.72361026267985       1.41333051929566      -3.31349950854745
H         4.33194984831986       2.09756001666693      -3.01471879855343
H         2.51967425177354      -2.70887858109397       1.37276817952750
H         1.46791266109890      -3.82831002186434       0.47829693290730
H         3.81325908774368      -0.98225279527832       0.07646412906260
H         2.29902428996029       1.30151552438875      -0.84372317054777
H         3.93481766404535       1.89587846950595      -0.52250914381972
H         2.17501340663561      -1.49780718221515      -3.79657916422229
H         0.75008591200016      -3.07172765377874      -1.98575116625364
H        -0.38083201633432      -2.12737297563205       0.48402594980858
H         0.13303217070600      -2.56567835399308       2.11917905837497
H         1.71974470156243       3.45420154697727      -2.01080812722612
H         3.36755060820338       4.05867385557982      -1.70582891068125
H         2.26898784042349       3.75172201826908      -0.34212634234142
H         1.00614839995596      -0.00185741934142       0.62254153762782
H         1.52057283504351      -0.45151076363224       2.26335577192428
H        -0.18989167855895      -0.08284897656467       1.92757771295862
P         6.68680605884392      -0.88611541843326       1.64933845310722
F         7.92674550398428      -1.63121693556409       0.83748300664550
F         5.82831030458781      -0.74170469565301       0.17339128429952
F         7.43592737049435      -0.99843406701319       3.11933504458779
C         5.92529732442705      -2.70643682204630       1.92429411893795
C         7.67718271912138       0.79151896641037       1.27966227973993
C         5.08631051724782       0.02592163883827       2.47000801892508
C         6.88222227179823      -3.93395589588323       1.76401523422427
C         7.71194578654814       1.33016972183867      -0.18333043197368
C         5.03897268888563       0.41514327632531       3.97984428599617
F         4.88531419268567      -2.99681544517704       1.03619372469364
F         5.40236671559779      -2.82279067723189       3.19004374935994
F         8.99378878128877       0.57236261111403       1.61031834904333
F         7.26347921987462       1.86066268986577       2.04418096400696
F         3.95765642398925      -0.78470701353067       2.29004534771618
F         4.79386965771950       1.17894360757705       1.77278642554296
F         6.22716297811786      -5.05547776119494       2.19505283639890
F         8.00269147841087      -3.80522963656011       2.49910307477524
F         7.21251229372355      -4.14602347623456       0.46805245585633
F         8.57401725325487       2.37947481113477      -0.26028944880069
F         8.11778436200265       0.39673443566862      -1.07301143076838
F         6.48950140478243       1.79091828802777      -0.58262589846867
F         5.10989359551171      -0.67122872590752       4.77668306038493
F         3.84347264965369       1.03519957751282       4.23507140994459
F         6.02296301230288       1.26854730127216       4.31752617352589
