60
C16H30F6N2O4S2 optimized with DFTB in AMS.
N         1.32834549642749       0.82042635738832       0.51722301928503
C         1.96779801804390       1.38746103343551       1.75565764989581
C         1.33504048556453       1.95525490341514      -0.48015073306366
C         2.13444746750473      -0.32836542698762      -0.02196941101641
C        -0.07914329675662       0.41710638115170       0.84846413285550
C         1.55697699399918       2.84865912004552       1.77743602859150
C         1.58884209141082       3.24616609092303       0.30269287990542
C         2.32200586477568      -1.47383473224313       0.96634746715850
C        -0.82194593944615      -0.30346822546085      -0.27598780546427
C         3.25531515223425      -2.51776424666973       0.34074693954706
C        -2.30551850645838      -0.43063942471556       0.09141558178561
C         3.60028147712029      -3.62247249762792       1.34361212921902
C        -3.07818336275597      -1.18123626130621      -0.99799141400640
C         4.58472789759631      -4.62130327792833       0.73856916990526
C        -4.55713160235148      -1.30944483713752      -0.63900517351358
H         3.04735357867284       1.29014057223581       1.64417219128183
H         1.63964923115801       0.82769517736787       2.63080112223977
H         0.38248164741136       1.96858021965112      -1.00921529015612
H         2.13750851697504       1.77349625045501      -1.19496647109694
H         3.10963634073796       0.07956362939117      -0.28851518292741
H         1.64459815963223      -0.67211841519188      -0.93527373329017
H        -0.61116199596313       1.33214336665975       1.12139486189912
H        -0.03510147976823      -0.22945885223616       1.72802464642000
H         2.26144045218415       3.43412766536491       2.36871784278467
H         0.55674751692313       2.97107610104026       2.20157398626859
H         0.84012618882223       4.00408138760446       0.06955376956318
H         2.57638352665110       3.63470673717980       0.04412345203947
H         1.36338539898090      -1.93447054726590       1.22338468492355
H         2.78136299972111      -1.09702927183517       1.88324451217916
H        -0.40478308940150      -1.30286881415564      -0.42303715705921
H        -0.72885674870466       0.24423142428151      -1.21748590975957
H         4.17318363811596      -2.01905981255823       0.01890725237896
H         2.77848676322477      -2.95209566669306      -0.54467991875958
H        -2.73488001300647       0.56810883036105       0.22470228346112
H        -2.39905138342303      -0.96526087149419       1.04259702134531
H         2.68315298001581      -4.13982403476471       1.64692973268105
H         4.04455928255100      -3.17227045055657       2.23703699745150
H        -2.64545856834705      -2.17872377022624      -1.12741824260067
H        -2.97731876476122      -0.64623827178355      -1.94813210434103
H         4.81604168214241      -5.40287757402986       1.46223223576001
H         4.16163207511421      -5.08596625642287      -0.15328300194986
H         5.51156206772193      -4.11783973040742       0.46292427133462
H        -5.08461343514569      -1.84805720250331      -1.42596651005106
H        -4.67740052199491      -1.85558637030560       0.29741465972321
H        -5.01061496410610      -0.32373806289162      -0.52757689071413
N         6.58888444119753       1.15022883226771      -0.68203689409693
S         5.36918535173895       1.43706692575920       0.27533013777087
S         7.80320593592230       0.28773805162727      -0.03209816753202
C         5.77963552877020       2.80129530587720       1.50887653083724
C         7.20136281456355      -1.49254682852810      -0.02620633047915
O         4.32091913513284       2.05259607139412      -0.52773761073759
O         4.92526618506089       0.34040886263698       1.13146932913363
O         8.08657964192795       0.60666036070056       1.34268411007441
O         8.87212469930099       0.29667586705194      -0.98821684630994
F         4.63428957261917       3.45308256779362       1.76128594530378
F         6.64629112983105       3.66077347207774       1.01101830446422
F         6.22990495652427       2.31989204890137       2.64717706086162
F         8.20152588497871      -2.29863529462992      -0.34012856569261
F         6.23738351940757      -1.64866611001051      -0.93165581622733
F         6.72618178598115      -1.84788039487218       1.15488094951608
