36
C8H18F2N2O4S2 optimized with DFTB in AMS.
N         1.22878306143846       0.18391534806277       0.08848775769178
C         0.72608912172627       1.09471783672084      -0.99974257161185
C         0.76827803985810      -1.22437913215897      -0.15398653934772
C        -0.77959372324782       1.01608685863137      -1.19959035746800
C        -0.73527616803675      -1.33286855933764      -0.37817490039127
C         2.73813229165357       0.25581040157231       0.04602154894640
C        -1.18655638629143      -0.42079668336156      -1.51598056241215
C         0.75918577177493       0.66406832535507       1.41416602535797
C         3.45480236704700      -0.78807113979788       0.88527483006573
H         1.22362092226830       0.79039553202400      -1.92153339860472
H         1.04483293871194       2.10771313303430      -0.74581494728185
H         1.06263170619298      -1.81900236725569       0.71272288814249
H         1.29921003047164      -1.58763076640593      -1.03352856910142
H        -1.02702523137456       1.66783750756313      -2.04115055156833
H        -1.31954854907503       1.38388763263711      -0.32158708889852
H        -1.28367391521658      -1.09551269244048       0.53886778071451
H        -0.94545709811050      -2.37529157740043      -0.63112922492380
H         3.03827809086113       0.13684080262261      -0.99617564806348
H         3.00599038611550       1.26522792991971       0.36762045665164
H        -2.27003523543118      -0.48645904557235      -1.63708404707427
H        -0.71145787756082      -0.73747010355202      -2.44912894773488
H        -0.32653276941266       0.63595742270918       1.45274651851668
H         1.16477414446984       0.02139513966490       2.19246477534712
H         1.10406220795255       1.68605564712191       1.56069515054257
H         4.51445986166520      -0.53254655193483       0.87966496246069
H         3.11237141054001      -0.80496978107132       1.91895071871333
H         3.34853010697730      -1.78002782647827       0.44909728884191
N         4.21811515373912      -0.42796501638038      -2.92091288490619
S         4.04902850458991       0.97781233707130      -3.65320110474537
S         3.01666331098854      -1.45111243014659      -3.04396402267028
F         3.06342628426499       1.76924585080982      -2.56985101738945
F         3.28218496613824      -2.23234911821209      -4.42201113506212
O         5.27764810456729       1.68215257287108      -3.54180011007618
O         3.30585288399745       1.01141264241256      -4.86491765409165
O         1.69174850414056      -0.90407192255200      -3.19298805725393
O         3.19109515300657      -2.44461010824553      -2.02356204121539
