27
C7H13BF4N2 optimized with ForceField in AMS.
N         0.07000536178178      -0.61963915948105      -0.45163401888090
N        -1.99329268834657       0.13207570885464      -0.10721834522834
C         1.44402074739592      -0.71596177383507      -0.94237295293665
C         2.45119191589047      -0.41312394855213       0.17346626353178
C        -0.83686326906231       0.32491337606960      -0.77028490046009
C        -0.53576676425646      -1.43880811927862       0.43269388076479
C        -1.81668896053843      -0.97047266498856       0.64746174089792
C         2.31647194147956       1.01737398958255       0.69397651478910
C        -3.18645523739751       0.96741072082599      -0.15911068617804
H         1.60068526632363      -0.00604709198851      -1.78415741186946
H         1.62219927529492      -1.74123892401172      -1.33193489809799
H         2.30818787463457      -1.12728046495153       1.01253178369972
H         3.47996762956712      -0.55376890002501      -0.22336598073688
H        -0.65153897207114       1.14547957685445      -1.45351577936444
H        -0.07722965325256      -2.30506148075463       0.89338348136201
H        -2.55874337302557      -1.39470294988448       1.31229870008991
H         1.33479537678797       1.15745307873753       1.19486831493719
H         2.40924010938788       1.74448478741868      -0.14103385075348
H         3.11966562100810       1.22131919646617       1.43279709582507
H        -3.03087710823830       1.82548210113966      -0.84749922001987
H        -4.04781202368762       0.36762810118701      -0.52056462728730
H        -3.41159924352863       1.35902291795236       0.85527836831984
B         5.38884084879895      -1.24156918199183       2.81403335309424
F         6.09647881892677      -1.74307984322084       3.93880727591303
F         4.00797877644461      -1.14512854859144       3.13033847448003
F         5.56311187757184      -2.12231480069254       1.71342018353827
F         5.88799537951100       0.04411861965931       2.47492946067054
