37
C11H24ClN optimized with ForceField in AMS.
N        -0.22539800670347       0.30893139933696      -0.15625478490156
C        -0.93573243538322       1.27896512102882       0.74063689427420
C        -1.10263299673062       0.01982422586694      -1.33751716313314
C         0.10764527265904      -0.93898679620316       0.61754805479855
C         1.01160055384258       0.97129687094479      -0.69666112776892
C        -2.34882191914759       0.82507752313974       1.16224079963391
C        -2.49986964781512      -0.50284943806327      -0.96613759796853
C        -3.21254870847846       0.48643670504565      -0.04949596306945
C         0.90902115450830      -2.01413296262459      -0.15505289490675
C         2.11844522717197       1.28554982594843       0.33926487421659
C         1.20144985145394      -3.21614614375335       0.74008601088714
C         3.28422328232727       2.01811592690163      -0.32130583675735
H        -0.36115819351197       1.45212046709778       1.67538882379237
H        -1.03952160816619       2.26939895027902       0.23961366993793
H        -1.25482260238982       0.94881565799147      -1.93628441825874
H        -0.62497340971352      -0.69674017439484      -2.03721046928838
H         0.66873510163108      -0.67795834367676       1.54178931881418
H        -0.81090157016882      -1.43273194652657       0.98925096584288
H         1.46101956009315       0.34894702791139      -1.50086224902762
H         0.73990233318667       1.93079115748167      -1.19638260457771
H        -2.29887934393986      -0.04355400629890       1.85124276862592
H        -2.83561366990978       1.64906106342106       1.72766293894260
H        -3.09685416575350      -0.62185562362736      -1.89624667680343
H        -2.44292052430720      -1.50473042326791      -0.49318328648157
H        -4.17487660890373       0.04794803761332       0.29155710142499
H        -3.43953831870465       1.41785077127820      -0.61365241841197
H         0.33404385645679      -2.38342807367566      -1.02774620438491
H         1.88039711298292      -1.61412463891012      -0.50837120076748
H         1.73155540636466       1.93207354963454       1.15175292635883
H         2.52014351232698       0.35266848197100       0.78482088083588
H         1.77066246584413      -3.97784626496999       0.16665474170611
H         0.25305589866580      -3.67520581856498       1.09311575868924
H         1.80795668688879      -2.90599228138694       1.61756478409717
H         4.06845687963770       2.22997739077751       0.43554858961404
H         2.94009543075664       2.98173562871152      -0.75418577103050
H         3.72812740439964       1.39269605482396      -1.12470868248278
Cl        2.75772364682948       0.91218956753901      -4.09939909807179
