32
C8H16F3NO3S optimized with DFTB in AMS.
N         1.09567710991499      -0.56822042022937      -0.06723854477047
C        -0.25677595385354      -1.04395959905122       0.35371070121162
C         0.99622276780357       0.92450317330479       0.03224708935613
C        -1.23361994248123      -0.03294291562300      -0.24183524426674
C        -0.42618309362540       1.26642235582913      -0.40080947433474
C         2.18251238947446      -1.05878389341548       0.84919110268406
C         1.36252898612598      -0.95443440732212      -1.48012109990770
C         2.52449670249955      -2.52557073180348       0.66053766739771
H        -0.29278491314621      -1.02595948949253       1.44551525992383
H        -0.41720089656773      -2.06334918308145       0.00298830541829
H         1.76939729190910       1.37327142514153      -0.59071709917763
H         1.17528755124842       1.19905253960554       1.07328655905061
H        -2.08917920276479       0.10083378382818       0.42195427893809
H        -1.60460347005833      -0.37891477639993      -1.20879977642981
H        -0.44762089353979       1.60912243371062      -1.43694624001835
H        -0.82756760549566       2.06382606262600       0.22676245401520
H         3.06033695114562      -0.44208915560583       0.64866068277539
H         1.84169959139289      -0.86832341630150       1.87011941704205
H         1.20547614639062      -2.02393971036642      -1.59806868423803
H         0.68454635127606      -0.40898941471102      -2.13173186686366
H         2.39434389375476      -0.69982837410278      -1.71915253910110
H         3.22817459251500      -2.80390354832414       1.44454444673486
H         1.64360688735944      -3.16225704194767       0.74153756294411
H         3.00934691616099      -2.68775871131660      -0.30040383479007
S         4.75027999815829       0.76799136728257      -0.99257574308094
O         3.89364947454053       1.40142365060363       0.00670917886566
O         4.38753808956709      -0.62487747093884      -1.24207699797722
O         6.15460064039083       1.03575561813955      -0.87342680717062
C         4.19792051775391       1.60843870158999      -2.55328730557168
F         4.41107822905938       2.91535903512832      -2.52751805939445
F         2.86403045716193       1.42033177541299      -2.67587129028453
F         4.76962574992918       1.10559272703051      -3.63678706157984
