43
C11H24F6NP optimized with DFTB in AMS.
N        -0.61746811693603      -0.12212394025871      -0.13234133481844
C        -1.54199038981104       0.68855311901086      -0.99145232545746
C        -1.06964782329081      -1.55950832816284      -0.18784476039919
C         0.75749834797294      -0.03084987319939      -0.74783651991138
C        -0.60066342014335       0.35557040355216       1.29260552400633
C        -3.00197824125985       0.56824740680691      -0.56698644683881
C        -2.51615974439701      -1.74781082032822       0.24102926569791
C        -3.45833817342283      -0.89082665058182      -0.59915980397543
C         1.87458660945034      -0.66114656298597       0.08159360714826
C        -0.17865621023224       1.80471108995128       1.47348754378136
C         3.13491695848527      -0.81935105088473      -0.77814374593490
C         4.24933609591641      -1.48339630634228       0.02772413456231
H        -1.42235860489877       0.31892288914258      -2.01403754711610
H        -1.21193799481541       1.72861808019540      -0.95909331727498
H        -0.41641685586299      -2.14132547584528       0.45750450199702
H        -0.93935373160346      -1.88727333296388      -1.22291396049342
H         0.96527393767311       1.02842805212335      -0.92236165151851
H         0.68955032837022      -0.52608667874578      -1.72048612810136
H        -1.60162286236387       0.21340552523792       1.69944822698269
H         0.07504437922297      -0.30495601850186       1.83582437652077
H        -3.59561381240551       1.16311480454353      -1.26653098599933
H        -3.14664227227709       0.98917170960890       0.43131444724512
H        -2.63398800162942      -1.52469079139097       1.30350443918910
H        -2.74687291821484      -2.80738401444520       0.10761807899152
H        -4.47716889212866      -0.96470729752628      -0.21237319643737
H        -3.45980417023243      -1.24773962507146      -1.63442538643189
H         1.57688903368271      -1.64330340112213       0.45004606261141
H         2.10760563375711      -0.03156007134771       0.94398161229727
H        -0.15660683280260       2.00320076865231       2.54499697258948
H         0.81588011998802       1.99499291348037       1.07423259767177
H        -0.88374356398765       2.49739766190936       1.01563700735681
H         3.46582510192620       0.16280197119475      -1.13379078210301
H         2.90195021999230      -1.43389331789224      -1.65426063322663
H         3.92763001640409      -2.46287000807845       0.38177004600261
H         4.51361739104667      -0.87107128855732       0.89050153410551
H         5.13421179421406      -1.60906050054633      -0.59595891219543
P         0.11403045448436      -3.82153322112196       2.54073713650311
F        -0.77528584757719      -4.03920034453829       3.88570193102346
F         0.38884665132030      -5.41362682742079       2.38306846615962
F        -1.25794325169678      -3.94364779718248       1.60124664596128
F         0.98628599666488      -3.52326884958051       1.13406142930304
F        -0.17465340049927      -2.15257446393217       2.63411353247045
F         1.47631359051712      -3.61225835985466       3.41365491225543
