29
C9H16N2O2 optimized with ForceField in AMS.
N         0.05250245496234      -0.63436081269325      -0.41868187694145
N        -2.00490764532209       0.13836463689868      -0.08623271803079
C         1.41744891795433      -0.76121227614768      -0.92638531746550
C         2.44535815525287      -0.41516285586003       0.15717383016097
C        -0.85309709649935       0.30120520246124      -0.76499226773653
C        -0.54871953668570      -1.41673052433159       0.50084031742854
C        -1.82643269783250      -0.93540781858036       0.70763930911718
C         2.31436841026372       1.03166379282307       0.63095513254658
C        -3.19757096001673       0.97177480772886      -0.16522673575020
H         1.56414818169260      -0.08999210171014      -1.80111419089993
H         1.58388445038757      -1.80414261143593      -1.27251177667107
H         2.32743454741071      -1.10058553962637       1.02393321018890
H         3.46446500834047      -0.56267069935778      -0.26001792220658
H        -0.67114650276427       1.09243669073872      -1.48179692236820
H        -0.09109090903306      -2.26857270601268       0.98718865779049
H        -2.56613573427914      -1.33308025356459       1.39053729658843
H         1.34082823627028       1.18631423495289       1.14273873413936
H         2.39135617104217       1.73019299382931      -0.22927452134847
H         3.12889708143026       1.26163115695656       1.34929735530805
H        -3.04567722839963       1.80146191283879      -0.88833763543197
H        -4.06104562605154       0.35841875064373      -0.49739422369691
H        -3.41714940965809       1.40349562032427       0.83382712991746
C         7.85452683136777      -0.14069135503494       1.77740143383603
C         6.76263493539899      -0.87125776984714       1.06092894517597
O         7.00401870343945      -1.45747676053300       0.01810795654472
O         5.63047006655340      -0.88624208905442       1.51601987646025
H         8.64981076692296      -0.85635944783804       2.07379195046696
H         8.29032302609513       0.63095797138408       1.10879199603431
H         7.46091680925706       0.35732634774775       2.68935797944339
