40
C10H15F6N3O4S2 optimized with DFTB in AMS.
N        -1.55512788153887      -1.46611026816062      -0.44558149680739
N         0.22650373882370      -2.63636253139521      -0.15855127581315
C        -2.87782999152161      -0.89272129474823      -0.21611830760243
C        -2.76012156435804       0.44370344585876       0.52096869414454
C        -0.97859485040633      -2.37183043082450       0.33767821355478
C        -0.69616827933563      -1.13283680783218      -1.45740364179504
C         1.18042955581501      -3.56693399325165       0.44064658241705
C         0.43074183052122      -1.87269058247261      -1.27507108655320
C        -2.17458662258520       0.28359581689736       1.92151906463082
C         1.87159723436569      -2.90604858263912       1.62720264957368
H        -3.45074211506264      -1.61592726979445       0.36963901994823
H        -3.35591664132625      -0.75393904868043      -1.18894763940251
H        -2.14259918029692       1.12886612868393      -0.06905637544715
H        -3.76559949159320       0.86829304732465       0.58965725433629
H        -1.42143400215454      -2.82245242522189       1.20719805569554
H        -0.95428027704128      -0.41648729312867      -2.21756051015014
H         0.62334026110275      -4.44864230028485       0.76590577702181
H         1.90054725228340      -3.85152801517777      -0.33009946600105
H         1.34104987631264      -1.92228455677939      -1.84654383719312
H        -1.16073572906013      -0.11510027513115       1.87283278966631
H        -2.78380117007191      -0.39728826575900       2.51499428467970
H        -2.14288645365443       1.25202066014922       2.41970895677683
H         2.37447392613662      -1.98955833955185       1.31889978289515
H         2.60636664265746      -3.59619773171307       2.03850987212461
H         1.14075960600957      -2.67174481840818       2.39969831732447
N        -3.15008159544317      -4.91334612731949       3.05547233473816
S        -3.57307638648094      -5.01203704437917       1.51130386695945
S        -1.87476943513724      -3.99980078148806       3.36005267150450
C        -2.34059317489710      -6.16659880343899       0.68186712575080
C        -1.70801715735721      -4.37556531050081       5.16541331270874
O        -4.82636150128537      -5.70519107058377       1.44304741939153
O        -3.42949083422211      -3.78182032222862       0.74589876836392
O        -2.10699375565925      -2.56617721501704       3.27606613830794
O        -0.63482487819613      -4.45176582607858       2.74048682983619
F        -2.94296100403498      -6.86032923901407      -0.26831755881704
F        -1.80072763190124      -7.00222295622359       1.55024321735757
F        -1.36329666395361      -5.45124662553658       0.11680710248922
F        -0.66085690771410      -3.72064582848158       5.64046516403239
F        -1.52600639293318      -5.67070736261692       5.34982704019817
F        -2.78945149010541      -3.99175497275177       5.81854129265386
