27
C7H13BF4N2 optimized with ForceField in AMS.
N         1.11013087417724       0.39255484163831      -0.44697734096345
N        -1.11296800263604       0.39218799750923      -0.41814821130722
C        -0.00710277920070      -0.22563896270248      -0.87607666593025
C         2.48887781668736      -0.01419436454163      -0.70443607953309
C        -2.49801178637178      -0.01393037011579      -0.64003643214082
C         0.69804906808648       1.43862176175722       0.29794349202706
C        -0.68206754769831       1.43800162004389       0.31629767642543
C         3.09089658465167      -0.65790496737762       0.53807421878045
C        -3.06707537008743      -0.65759250512229       0.61812812397909
H        -0.01491930109306      -1.11921562153659      -1.48710208652490
H         2.51885552629212      -0.74767876812004      -1.53965913910091
H         3.09122591304263       0.87168333648186      -1.00011939649291
H        -3.10745109820469       0.87225643908990      -0.92018523479365
H        -2.55022686655482      -0.74717967460597      -1.47456743739429
H         1.35059622207381       2.14158231059609       0.79874815408323
H        -1.32199515602408       2.14165831336477       0.83224799414200
H         3.11719893466322       0.07301819068620       1.37279145959336
H         4.12710533411617      -0.99258576003431       0.32167333937168
H         2.48445457097759      -1.53839685321309       0.84032513843340
H        -2.46727080755086      -1.55272249364897       0.88865373784083
H        -4.11677692356413      -0.97015324741164       0.43595654612282
H        -3.04738512164926       0.06386482982629       1.46208487127932
B         0.67449948798175      -0.08784600244447       3.89295655308653
F         0.28940447571169      -0.63260878982522       2.63982210056521
F        -0.08804049497033       1.08119483056936       4.15655720460903
F         2.05499651745378       0.24445281175761       3.86338555612504
F         0.44100484238999      -1.04656820582065       4.91412588111702
