29
C9H13F3N2O2 optimized with ADF in AMS.
N         0.82445776072341      -0.20326918229986      -0.51947544475370
N        -1.24031446103710      -0.65345257558546      -0.02721922381609
C         2.01984464161981       0.36076732837658      -1.17128582010138
C         2.94670698833424       1.01275651812609      -0.15166206779321
C        -0.44462251970791       0.09208952924127      -0.81363793768534
C         0.86392045383565      -1.16118759578992       0.47324593819285
C        -0.43965084152364      -1.43684998602837       0.78503259437036
C         2.28273751214840       2.12716167852161       0.65095781115848
C        -2.69552374608402      -0.67727093089444      -0.06885436346441
H         1.65945787032818       1.08634186940681      -1.91747329164897
H         2.50867587216666      -0.50682498041821      -1.65554302685579
H         3.34635719561095       0.22408725585140       0.50862253918792
H         3.81004890236284       1.40242937050904      -0.71752682990269
H        -0.77900131068258       0.79749569064272      -1.56341180619037
H         1.84630636802467      -1.59837699358930       0.78081045186357
H        -0.86802595869443      -2.12996210914515       1.49925104183157
H         1.43456994190382       1.74425544632452       1.24154412494763
H         1.90530288069411       2.93014822324231      -0.00407238358447
H         2.99488429834293       2.57899101879271       1.35676708870992
H        -3.04610052582804       0.07546518517479      -0.78403008635675
H        -3.03569617468813      -1.67074506317741      -0.39081854963960
H        -3.09605235780323      -0.44559386199401       0.92624682724119
C         3.60214309146428      -2.70010887259418      -0.43767915905215
O         3.47872055497541      -2.27469892927428       0.74579042221284
O         2.92578189193775      -2.45614831278806      -1.46325850031025
C         4.81353464190614      -3.67059786070561      -0.62659271900333
F         4.90464644599906      -4.18174856883799      -1.88695508895728
F         4.75202548894981      -4.73651913267112       0.23235562910275
F         5.99676181562094      -3.01867963931652      -0.37449934140332
