38
C10H22BF4N optimized with DFTB in AMS.
N        -0.20021141999611      -0.53034991870621       0.00705777495721
C        -1.33242767592692      -0.98824977286898      -0.85813627930038
C        -0.90451729757507       0.23860222291973       1.07695175810314
C        -2.31922435371550       0.18036044394950      -0.88689719542515
C        -1.96317720364768       1.04477523042348       0.33409496148005
C         0.71086595588791       0.35124154634780      -0.81967907960484
C         0.56483011489307      -1.68758510351015       0.60021410116517
C         1.62023036180818       1.28116440367448      -0.01938854250296
C         0.80687235398456      -2.84142308520704      -0.37309979063669
C         2.61858788695332       1.93828793815941      -0.97376610759092
C         1.82519398995423      -3.80749426288522       0.23125054780058
H        -0.95047057597172      -1.26063170994578      -1.84124963725928
H        -1.78290816255534      -1.86291095948644      -0.38421364763379
H        -1.37468674441522      -0.48420101515027       1.74838271680837
H        -0.19526910450418       0.84048746580947       1.64113917874177
H        -2.22465705475926       0.75387954258410      -1.81049163649796
H        -3.34229941909089      -0.19503819634244      -0.82465051139360
H        -2.82880069329306       1.22101235079270       0.97409907563573
H        -1.56514263256705       2.01253117925095       0.02217574043964
H         1.32165729067342      -0.32475602761145      -1.42209383511890
H         0.07601637037631       0.94061666323802      -1.48437321647179
H         1.51921596268223      -1.28741413263914       0.94538288322153
H        -0.00522377978126      -2.04494247729727       1.46260452089990
H         1.03439091993281       2.05960318282762       0.48144481903831
H         2.17133176300980       0.71492258659209       0.73403924311346
H         1.19684102110477      -2.46407038804982      -1.31982097885984
H        -0.13142431985593      -3.37065115683283      -0.56907782132048
H         3.26656119608000       1.18509112839665      -1.42043581073806
H         2.09607637452656       2.47460488983995      -1.76735671556103
H         3.23551645168958       2.64573368434294      -0.42021226595024
H         2.78871884879549      -3.31177371717387       0.34001825139570
H         1.49119336131482      -4.16607061934179       1.20650934528365
H         1.94996460031797      -4.66027293675527      -0.43483654776840
B         3.68940814723147      -1.41940317258779      -1.59878231429569
F         3.20583613714085      -1.07384133763737      -0.28980978492982
F         4.18851112256262      -2.70167200601705      -1.56450437688502
F         4.61152522621569      -0.47501919797892      -1.99732495549685
F         2.55081641941958      -1.36468419002378      -2.45927757304251
