40
C10H15F6N3O4S2 optimized with ADF in AMS.
N        -0.91401636370358      -0.34791079602785      -0.90664033165384
N         1.02465658299198       0.04078187421088      -1.80498799069906
C        -2.03123107020896      -0.35504104375069       0.05070265016048
C        -2.71941723233646       1.00435776685783       0.14572888719597
C         0.33537401951740       0.07105817607587      -0.65538964586599
C        -1.02577704197220      -0.63788645470144      -2.24761343509753
C         2.41981488944841       0.47604747912718      -1.98671762766058
C         0.19093199463984      -0.39094045065869      -2.81130476987485
C        -1.87266201721422       2.07556732608132       0.82187410663466
C         2.68341578264659       1.83491602386861      -1.36127489397022
H        -1.62833984294834      -0.67781458560889       1.02414177077287
H        -2.72853059990305      -1.12856298106399      -0.30209307448391
H        -3.00842144981383       1.32070911232051      -0.87058596239604
H        -3.65252560150416       0.84014105228710       0.71289911244262
H         0.70815756627905       0.39741887287820       0.30521966909507
H        -1.97082527202935      -0.91115853710505      -2.69906325049811
H         3.07631917722810      -0.30795940772425      -1.57576192460306
H         2.57381029765447       0.51767274134268      -3.07335697068370
H         0.50008937817761      -0.42686677497697      -3.84762439999410
H        -0.98600371996109       2.32213776164968       0.21954195083753
H        -1.56087167754149       1.76420732939798       1.83373405100746
H        -2.44997893347948       3.00701887897137       0.91979132284236
H         1.93981627698555       2.56130182601157      -1.71582578463829
H         3.68891205134226       2.17306135230900      -1.65091436400354
H         2.64910410555689       1.79548983956759      -0.26210719624687
N        -2.15514134811051       3.18544304320879      -3.98980477902537
S        -0.83536994318577       3.56518937586519      -3.18764097186240
S        -2.60099340305975       1.67107586343508      -4.28307028176661
C         0.57012640806258       3.49227848473777      -4.46393473697714
C        -3.91627555423102       2.08097470448891      -5.56468980546473
O        -0.88786802996513       4.97218499174644      -2.83003593504999
O        -0.41151239263591       2.57884463072123      -2.18219612027097
O        -3.34662154999036       1.04323471382992      -3.18286350066332
O        -1.61399124963208       0.84381958041114      -4.98472825951979
F         1.60761326509687       4.25460019942969      -4.02910223907495
F         0.17404496331159       3.94820253263178      -5.66738553997603
F         1.03960869580157       2.22038518938373      -4.61905587758616
F        -4.44835789252058       0.90988368619090      -5.99562647545918
F        -3.38425394724550       2.72854310692127      -6.62102164360266
F        -4.90308494254792       2.83200673115858      -5.03335448292005
