43
C13H27NO2 optimized with ADF in AMS.
N        -0.24056448083174      -0.20206194224541      -0.19639525773509
C        -1.25953204039624       0.53738538645290       0.65894447853348
C        -0.92163764244420      -0.63547924300689      -1.48830353721934
C         0.30381262535797      -1.38892717325803       0.59185642790042
C         0.86870982387126       0.75297458921765      -0.59617156548053
C        -2.53538953307535      -0.25532605464622       0.89255341783750
C        -2.16803071466067      -1.46162557779178      -1.25311141750907
C        -3.18268592374160      -0.67215790125729      -0.42675996450697
C         1.25239011478175      -2.28075872560862      -0.18594765078746
C         1.77046115901520       1.24163150152293       0.52504062086618
C         1.86912455092467      -3.30649901631590       0.76604218191491
C         2.73945828102747       2.30060602768503      -0.00284063362835
H        -0.75930003062781       0.77252594892476       1.60857044081673
H        -1.46479466048360       1.47931123653566       0.11978044467850
H        -1.15646377893109       0.30748830171173      -2.01390854402643
H        -0.16442980812464      -1.17900847324707      -2.07021741390435
H         0.79843022667570      -0.94501396036528       1.46962419741849
H        -0.55210154579126      -1.99013401907649       0.97187175778535
H         1.46337375505994       0.23436236381603      -1.36300226340714
H         0.36992677053855       1.60592597474840      -1.08375449338581
H        -2.32658266569309      -1.16527588985388       1.49013975714643
H        -3.20495477878345       0.39158697049409       1.48583072831448
H        -2.57326299264093      -1.72240121863334      -2.24629562617047
H        -1.90335405054293      -2.41878701126333      -0.74977078058325
H        -4.06809030676229      -1.29487133966583      -0.22329984424032
H        -3.52813032934496       0.21899376478834      -0.98867965485567
H         0.68076277632812      -2.83522139613671      -0.94705452999122
H         2.05546811947186      -1.70624987173891      -0.68239950896298
H         1.17141025428192       1.67061680259230       1.34383705647068
H         2.34285677960029       0.40003109622583       0.94396666718155
H         2.56135202467104      -3.96717741664882       0.22372329184933
H         1.07189839589771      -3.92389514005844       1.20391403064133
H         2.43020714936270      -2.81372228731515       1.57613425732646
H         3.40149967610091       2.65261604369669       0.80155338913598
H         2.20170184474793       3.17432303108596      -0.40284599787912
H         3.37388366525155       1.89501310303264      -0.80634871159156
C        -2.31069535474479      -5.38451993346911       1.90087962505938
C        -1.77660402678290      -4.07771388143949       1.29749218329157
O        -1.78651307824194      -3.05595319647512       2.05766298270964
O        -1.34062328603118      -4.12599996170742       0.10729952613428
H        -1.49114655876914      -5.88889426490344       2.43887044508344
H        -3.10845882997007      -5.18041990950011       2.62859772468524
H        -2.66935513755066      -6.06301940090287       1.11445642148378
