31
C9H19NO2 optimized with ADF in AMS.
N         1.01652778440702       0.12468768492124      -0.29516411115520
C         0.06404753442358       1.27324506739539      -0.51400436767837
C         0.29522250459359      -1.20320595519981      -0.46948912343897
C        -1.18177735642581       1.19142253969945       0.35462084799317
C        -0.94089681888041      -1.30872291202128       0.40654282684471
C        -1.90256536190256      -0.14397543130885       0.16540030649712
C         1.64822108568112       0.18059384089426       1.06992949723413
C         2.10922987749470       0.17859847327781      -1.32514437824955
H        -0.21216781525117       1.23771354995378      -1.58072929902915
H         0.63734511250547       2.19528732606307      -0.33374075280635
H         1.06662164223335      -1.96525873881461      -0.25802859815017
H         0.01395876294124      -1.24839590735038      -1.53497801834453
H        -1.83538561506770       2.03501283284227       0.07676982806739
H        -0.91999656870826       1.33809048786208       1.41564138866071
H        -0.65346348112754      -1.35960422156265       1.47007974402272
H        -1.42692949563722      -2.27040488336052       0.17368530722544
H        -2.76940024624883      -0.20794396636967       0.84290632028565
H        -2.29586541803621      -0.20289791395020      -0.86703287317145
H         0.86165307585506       0.22765939290234       1.82930649747692
H         2.27006108609291      -0.72911119602638       1.14421392598363
H         2.29635360216703       1.06346544500835       1.11066380644779
H         1.63701168219558       0.16273945737189      -2.31691921419449
H         2.69037172631970       1.09562468777456      -1.17172490600071
H         2.75618300693219      -0.69253703656801      -1.13774202114177
C         5.43400299671203      -2.77154466390468       0.62978803973095
C         4.28027471476378      -1.79336661584577       0.37267385184642
O         4.54174091616759      -0.56072371689225       0.35891357477047
O         3.12060815905145      -2.32338919777405       0.20709802524932
H         6.40384646316206      -2.27038180497528       0.50882602778283
H         5.35790226357637      -3.15103696436563       1.66120122558802
H         5.36230575660989      -3.63882946237648      -0.04245990514668
