23
C7H13ClN2 optimized with DFTB in AMS.
N         1.09574028480941       0.47821145780197      -0.49457968899577
N        -1.06057210674195       0.48080807066193      -0.53895690114450
C         0.02865942325889      -0.06761498167604      -1.08512968074954
C         2.47698279996478       0.07396489637576      -0.73029891781508
C        -2.43174934069610       0.07791545207817      -0.83186720833010
C         0.67434319735633       1.29108970760619       0.53061743140109
C        -0.67977039522071       1.29280708550528       0.50272313234727
C         2.95251272184277      -0.85280349133094       0.38411533608359
C        -2.96664683289984      -0.81981125103135       0.27903123107002
H         0.04596615325354      -0.65077535006593      -1.98667360420513
H         2.50900034915940      -0.43674716074104      -1.69598689886736
H         3.09293724569455       0.97742588615950      -0.78311732690356
H        -3.03941904442638       0.98259060369145      -0.93621701065250
H        -2.41956640180950      -0.45571604764412      -1.78542123167559
H         1.36735757847931       1.80491111994393       1.17321563782173
H        -1.39701002482083       1.80877834699710       1.11635047559457
H         2.94570923504787      -0.33318408925047       1.34170162952959
H         3.96662436227271      -1.18297373741975       0.16438880044154
H         2.29266077614947      -1.71820245320315       0.44669781485889
H        -2.31477022280415      -1.68525678770568       0.39584267578429
H        -3.96876725285664      -1.15402376823553       0.01389613785504
H        -3.00947691179475      -0.27656155257762       1.22235133301716
Cl       -0.00911123651821      -2.39957158913963      -0.12221848306565
