20
C6H11ClN2 optimized with DFTB in AMS.
N        -0.38685444138474       0.35630412979889      -0.39921741706260
N         1.68549942231653      -0.09998538316143      -0.04474078962494
C        -1.82221218668938       0.20076713499779      -0.63566160805092
C         0.49970601062079      -0.63294473873463      -0.35566981163838
C         0.22868423207477       1.53889648270560      -0.10430458675821
C         1.53767655708777       1.25465157653408       0.11976502586893
C        -2.53516251037919      -0.03678204647604       0.69036853899432
C         2.93276086598864      -0.82812857368619       0.10292645833145
H        -2.18101288302812       1.13315898299886      -1.08125632356091
H        -1.96236318823553      -0.63567732052709      -1.32571522822439
H         0.30715644710643      -1.67448973764391      -0.54844164547100
H        -0.35837853938434       2.45650046175007      -0.06275509491267
H         2.36712113665335       1.88938081391739       0.37636628262922
H        -2.10608743821113      -0.88960849785693       1.21695342755664
H        -3.58833618706517      -0.22853057163439       0.49154879907020
H        -2.45273581542513       0.85718562521410       1.30775629239121
H         2.75348913993049      -1.88560123564347      -0.08360173246691
H         3.66133761419835      -0.44504402690488      -0.61255195496186
H         3.31186264403007      -0.69098439350682       1.11634263723051
Cl       -2.30551938180447       3.23395345735899       0.13648963836031
