56
C16H34BF4N optimized with DFTB in AMS.
N         0.69492357871845       1.53457511375064       0.01070393880574
C         0.23230605702176       2.57608557366469      -0.98530367830456
C         1.51674862688166       2.28641529194757       1.02570962984281
C        -0.47617828024067       0.91408785208020       0.71122570601778
C         1.53817522708743       0.51237475331883      -0.69490885763165
C         0.55305858716005       3.94656386937264      -0.39096446420607
C         0.92727935520896       3.68477927365869       1.06483755623110
C        -1.35087964978389       0.02342787466243      -0.17121272975575
C         2.14044777667123      -0.53964186075764       0.23270927640652
C        -2.63537134178167      -0.34094093937871       0.58222248290115
C         3.28288666400900      -1.25125373972792      -0.50103941427250
C        -3.52026448178790      -1.26739011796344      -0.25752906719163
C         3.89555070335102      -2.35325764602661       0.36691022165663
C        -4.79993350181788      -1.64393730863069       0.49559427396860
C         5.06265457318416      -3.03558349038879      -0.35475048389257
C        -5.69839057317633      -2.54383698291223      -0.35076372859118
C         5.66533065791604      -4.15427453343404       0.49285999028486
H         0.77638724053778       2.42089501120640      -1.91690697167331
H        -0.83472470208497       2.44239214615236      -1.16553661806506
H         1.47807948665533       1.77108151151771       1.98505196238313
H         2.54500166327061       2.31911529971879       0.66183743280956
H        -0.08386522434423       0.32519893627062       1.54379710523713
H        -1.06870925179095       1.73694364049242       1.11984622029459
H         0.91857530136564       0.04504060608895      -1.46290406559225
H         2.33821729323340       1.07043369388292      -1.18533593778709
H         1.40994710065796       4.37532266202087      -0.91488471579169
H        -0.29735819252532       4.62415361315685      -0.48146890244790
H         0.05280496548663       3.73189081739314       1.72031960286276
H         1.67755281187785       4.39472234576468       1.41369495769655
H        -1.61094594828428       0.53299844773219      -1.10255767378565
H        -0.81489422299244      -0.89419814024624      -0.42687564843415
H         2.54478860803431      -0.06558785114149       1.13005049157971
H         1.38190997688195      -1.26609745939741       0.54211217972016
H        -2.37634043040908      -0.83557679808916       1.52445628835479
H        -3.18753480864303       0.57329318614305       0.82486152198572
H         4.04888742331988      -0.51170299443568      -0.75305072168625
H         2.90643031690363      -1.68315098390788      -1.43467692483561
H        -3.78081344058144      -0.76752956268006      -1.19669179859197
H        -2.96121184431893      -2.17566487260437      -0.50683158767476
H         4.25160369672112      -1.91937859175405       1.30743905663862
H         3.13022465646100      -3.09898803201531       0.61149581594052
H        -5.34532612328662      -0.73285349099644       0.76421235428878
H        -4.53598212950482      -2.16147750191533       1.42405864117969
H         4.70928810578059      -3.44934807470549      -1.30548559075668
H         5.83318348858713      -2.29134305038079      -0.57958998139812
H        -5.99461507296194      -2.03401068323770      -1.26846425112930
H        -6.59740010102017      -2.80457907761045       0.20774598468424
H        -5.17587973857933      -3.46340112466046      -0.61773576284070
H         4.91861246620018      -4.92192022613377       0.70211077819427
H         6.49903787220640      -4.61627247115846      -0.03640862181180
H         6.03199897260747      -3.76008575632727       1.44173981126052
B         3.96540729236305       3.07334304036352      -1.16551033672030
F         3.54344436625417       4.01953175716865      -0.21096570938048
F         2.87221909183806       2.86161296349545      -2.05808047621197
F         4.17009215910062       1.83772154376187      -0.48804680005327
F         5.08388880196145       3.47065927943180      -1.83360658781169
