34
C10H22ClN optimized with DFTB in AMS.
N        -0.48400021298995      -0.11399812925736       0.16180020736892
C        -1.44274265510145      -0.75756271630200      -0.80149041436156
C        -1.36665576631836       0.41414768044175       1.26589702001316
C        -2.66937601758356       0.13729536400096      -0.78099586665252
C        -2.77628985133177       0.55337040106474       0.68673516738873
C         0.22399121993059       1.01102566378010      -0.53164359238667
C         0.46610110095599      -1.13235011267364       0.72187752715877
C         1.33430872472142       1.67097197551319       0.28665380258338
C         1.35279963468230      -1.79547845035647      -0.32702521167935
C         1.79199164527823       2.95183788498108      -0.41084838926160
C         2.17633976284848      -2.89778123564989       0.33950050573812
H        -0.97867077041702      -0.85484351183782      -1.78250352833505
H        -1.69483110452937      -1.73920616151325      -0.38704926665183
H        -1.36509398644070      -0.32274161295141       2.07036549340771
H        -0.96288131553572       1.35811278192839       1.63126330451574
H        -2.54218257159141       1.00566833925577      -1.43395206041100
H        -3.55023105808139      -0.41582271469700      -1.10873634540894
H        -3.44216347481885      -0.13034035352301       1.21739675701488
H        -3.15297893422961       1.57209146682045       0.79316382264732
H         0.64042183777732       0.61462165220259      -1.46110346551921
H        -0.53687654603518       1.75279044475865      -0.78715443788804
H         1.06983783244911      -0.63569354804085       1.48446622564541
H        -0.16140279015285      -1.88908618697781       1.20774086758133
H         0.98214373972724       1.91524628345809       1.29194483367761
H         2.18673460351949       0.99383381849673       0.38209435329130
H         2.02740614054714      -1.06796400899302      -0.78947135650937
H         0.73745612515640      -2.23677062325540      -1.11520535284725
H         2.15448837373381       2.73212340000964      -1.41557386503598
H         0.96963100126123       3.66421058866859      -0.48416056433369
H         2.60003648305668       3.41027171949946       0.15807437794985
H         2.80412052287613      -2.48265826482738       1.12876112944477
H         1.51907610158333      -3.65006587132267       0.77511396484912
H         2.81655036958173      -3.37789259686739      -0.39989268481905
Cl       -2.25524567022945      -2.57349065683384       1.69880061822497
