34
C10H21NO2 optimized with ForceField in AMS.
N         0.02011054132655       0.00277783694429      -0.00545385656703
C         0.94739430604470      -0.83927856641932      -0.82146466042499
C         0.91218595708601       0.84916221571921       0.84531414283281
C         2.35491478417626      -0.30146001519426      -0.64908719780360
C         2.33057590465044       0.32741828068429       0.71495839374317
C        -0.83015549658677      -0.86432571421842       0.87213849598791
C        -0.80111077427005       0.86667574793131      -0.91399634801430
C        -1.81519076473654      -1.77222637578883       0.11354373801086
C        -1.82271500924298       1.76382445015413      -0.19048210394016
H         0.68261559281778      -0.86375338389084      -1.90304336926235
H         0.96404713210773      -1.89959889350426      -0.47848338032784
H         0.61296443686089       0.86353226345268       1.91826420109389
H         0.92819468401502       1.91213856060441       0.51079694161885
H         2.56063293207906       0.47361646581843      -1.42013445669616
H         3.11936028731503      -1.10640536317302      -0.71448046257346
H         2.52207953587505      -0.44549954914574       1.49183193052089
H         3.08364995653161       1.14085913467918       0.80316379452052
H        -0.18196493172996      -1.51386442873921       1.50439506988215
H        -1.41706931772656      -0.24530410508903       1.58383928655961
H        -0.13246387106488       1.52498552045606      -1.51504613264482
H        -1.35268659050075       0.24744490614706      -1.65548012638565
H        -2.27395190950365      -2.48727061390060       0.82847659808233
H        -2.63728758542770      -1.18008910915244      -0.33673321340960
H        -1.30922013490906      -2.35656277514169      -0.68119438362956
H        -2.25046237531369       2.48696818285440      -0.91629154106694
H        -2.66276864715295       1.16439711263063       0.21499979891171
H        -1.35565056207856       2.33888005233737       0.63449240426697
C        -2.31376940019120       2.34313623611767       5.06282616555147
C        -2.17979698027527       0.85593291101021       5.15178206013425
O        -1.95773253285436       0.20316230557545       4.14561954793173
O        -2.29157012549551       0.29063008740334       6.22785027432558
H        -1.37398047533139       2.77869021873804       4.66340062059553
H        -3.15355854238671       2.60248780413232       4.38445687110180
H        -2.51418698100759       2.77895297516722       6.06500791987442
