38
C10H19F6N2P optimized with ForceField in AMS.
N         1.91186898532663      -0.94088515435811      -0.23084081859389
N         3.13792943422252       0.91181701719526      -0.13033389874849
C        -0.37106814131119      -1.87702650939533      -0.06499899715650
C        -1.03494242385962      -0.51815990506372      -0.32807611018156
C         1.00780990499640      -1.97652521427231      -0.72978404327598
C        -2.44661976192487      -0.46789879565713       0.26399882882866
C        -3.08653871486711       0.90564782511161       0.03233703704356
C         2.36907068054251       0.12872509095894      -0.91183591228314
C         2.41217211085949      -0.83204195054240       1.01684232439490
C        -4.49901160741475       0.95747341285966       0.60523978999579
C         3.17389378538935       0.31778984651348       1.07827538037923
C         3.74821578366499       2.18557222509235      -0.48883593584415
H        -0.26793188112381      -2.04060532664238       1.02985692822026
H        -1.01562458241425      -2.68659544756660      -0.47284008371698
H        -1.08929072158159      -0.33847693251335      -1.42422089386089
H        -0.42210421050453       0.28776024965228       0.13269154762823
H         0.89120025346861      -1.88345072163381      -1.83220912865707
H         1.44636262376504      -2.97625158347674      -0.52170636362486
H        -3.07360010987029      -1.25293570172658      -0.21355413175213
H        -2.39608591553664      -0.67020996629657       1.35673216681736
H        -2.47165552075662       1.69290874350766       0.52062130416490
H        -3.13237069704445       1.11967783256353      -1.05785896504918
H         2.12131067186460       0.34794289446013      -1.94333528994236
H         2.22114966046971      -1.52504312537356       1.82625205567293
H         3.69775747041769       0.70165710230817       1.94410128336375
H        -4.47757848317972       0.76843032784240       1.69947627713198
H        -4.93476883780502       1.96272698466570       0.42585103831432
H        -5.14168199887704       0.19731932243321       0.11274531140339
H         4.84659545634230       2.12987187542849      -0.34609991872139
H         3.53526207779121       2.43520200327117      -1.55031806537927
H         3.33804477387890       2.98934880437833       0.15777192618324
P         7.37552340802108      -0.18981722617413      -2.19556982995203
F         8.04074990708073      -0.79658320116931      -3.65847579406017
F         8.66483214738385      -0.93506838057847      -1.33985291914940
F         8.29546716006401       1.25124265061744      -2.36220760639203
F         6.76556757381272       0.36718984621948      -0.69065435514534
F         6.08649098474031       0.56964090600855      -3.03983646664728
F         6.41757861826887      -1.60761106874734      -2.04635497960843
