59
C17H21F18N2P optimized with DFTB in AMS.
N        -3.07817681985678       0.80612546095921       0.16748132797181
N        -3.75546015804463      -0.86305764235233       1.34603403932591
C        -1.19023073668808       1.37225890110137      -1.33360519264380
C        -0.93881199154274      -0.03715126494273      -1.87819617048983
C        -2.65926994598362       1.61371641568121      -0.97627339172202
C         0.47266554280432      -0.17355149871686      -2.45642828871377
C         0.69848837994881      -1.58682851962780      -3.00365710859911
C        -3.37489906267446      -0.49026520158733       0.12816298631027
C        -3.27392005824745       1.27033538338506       1.43986608917047
C        -3.70755335075366       0.21839537970398       2.18395223646974
C        -4.27504497340859      -2.18724726401608       1.68163009693609
C         2.09796907737238      -1.73837864092756      -3.59632172150323
C        -5.78613519096808      -2.11601592069475       1.86618600615947
H        -0.92527169170009       2.10970792095531      -2.09707338442450
H        -0.56403351440964       1.55651667219326      -0.45493570963487
H        -1.67287730319993      -0.26065238665047      -2.65794475153616
H        -1.06785156664717      -0.76922668077823      -1.07429829244951
H        -2.81681352117404       2.66091214839689      -0.70798770540621
H        -3.30738475886818       1.35888959475496      -1.81790457170214
H         1.21168418117027       0.04434151533294      -1.67728093715747
H         0.60895039602669       0.55715044629084      -3.26080797132345
H        -0.04921299425370      -1.79997403136802      -3.77420601386179
H         0.56295596455319      -2.31459815361515      -2.19650037561442
H        -3.31924545953018      -1.13295513123048      -0.73046944832041
H        -3.10098984375604       2.29815278743718       1.70714344310136
H        -3.97753010963828       0.15306159571988       3.22327845756381
H        -4.02368729901019      -2.85324192191948       0.85313172482439
H        -3.77638868493343      -2.53170099522038       2.59207998395143
H         2.85866352240343      -1.54862172246655      -2.83741672878925
H         2.24379180515649      -1.03494342103378      -4.41724028238218
H         2.23303521152567      -2.75033694070496      -3.97823239034092
H        -6.04425186223184      -1.46274534347528       2.69893524054390
H        -6.16507154180323      -3.11670897538893       2.06682250596495
H        -6.24802577717755      -1.73525193955211       0.95717450328803
P        -5.37412682320033      -1.65422294639119      -2.79621682039206
F        -5.17255087868740      -2.19021576927491      -1.18241520736118
F        -4.10215396181394      -0.50419513985365      -2.62682820398814
F        -6.60020697408072      -2.76580208437542      -2.95984285719084
C        -3.94733615656213      -2.96458154470104      -3.12948026632920
C        -6.54978315813233      -0.27028652233256      -1.95809984909101
C        -5.75706065215958      -1.02596281661546      -4.64633661702962
C        -4.24913359942816      -4.48037164300056      -2.99041723311389
C        -6.69400841229963       1.19600356425664      -2.46973529290523
C        -5.43037830114828      -1.79970024364843      -5.95537824141764
F        -2.96296916855516      -2.72237567530048      -2.22411910782057
F        -3.39895699544831      -2.76438771253567      -4.33796714486778
F        -6.03917407458218      -0.05888168120921      -0.70937230500571
F        -7.78717108649891      -0.74979429066462      -1.78906533212440
F        -5.24976948576902       0.21222833638267      -4.80226355834683
F        -7.10205403522258      -0.90322061999192      -4.62751376564470
F        -3.14126471825716      -5.18628824493889      -3.23252833764125
F        -5.18694863098996      -4.88895987848582      -3.83241404024009
F        -4.64269220249807      -4.76311181682311      -1.74864983592294
F        -7.35167358523662       1.89773363597268      -1.53789142041504
F        -5.48833608984084       1.76422073296907      -2.60063361439195
F        -7.35159330041121       1.33487865048394      -3.60585324693381
F        -4.20161061776971      -1.52676332013793      -6.38153334093113
F        -6.28018232228324      -1.44960751543959      -6.91896234857744
F        -5.53863977018413      -3.11432991658736      -5.77495252928423
