28
C8H18ClN optimized with DFTB in AMS.
N        -0.32931832147051       0.18911884841942      -0.01482724972025
C        -1.36551355884698       0.51501924103903      -1.04450152867040
C        -0.76254896571106      -1.14243513072197       0.52047820909260
C        -2.68193277012177      -0.02493600225537      -0.48233727947767
C        -2.28084291865650      -1.05630185926846       0.58557953353339
C         1.02334347147964       0.12628609599218      -0.65930681293295
C        -0.35271522101035       1.22079102693780       1.05997763403108
C         2.16019382256999      -0.24039871802870       0.29232081490046
C         3.46607270601400      -0.34155877216344      -0.49211784692796
H        -1.09607277181299      -0.00083693236916      -1.96897883238665
H        -1.37307170780781       1.59095712122645      -1.22206755815148
H        -0.29093462485249      -1.30182805348834       1.49821677751879
H        -0.43520650251381      -1.90469147600869      -0.18995723534884
H        -3.26588412387279      -0.48380248905149      -1.28218425678743
H        -3.27780462056594       0.77870271021526      -0.04585331286923
H        -2.60391571137150      -0.73071767260366       1.57627399556751
H        -2.72552896736108      -2.03252429217033       0.38704784204106
H         1.20158792320435       1.10792542288925      -1.10916783464727
H         0.95583142729103      -0.61508564944838      -1.46136956145322
H         0.06414562167862       2.14668111433791       0.66809731793148
H        -1.38149360499358       1.37988338951064       1.37346348548153
H         0.23069267646815       0.85279035678102       1.90982502627243
H         2.26236992950227       0.51663314373865       1.07146301089565
H         1.95149209187431      -1.19242732690731       0.78259361326096
H         4.27711508126134      -0.59224070944678       0.19010160654837
H         3.40054127045464      -1.11863530982165      -1.25515622599281
H         3.70068717298826       0.60655987913109      -0.97855721177867
Cl        0.90594251198254      -0.77689960126498       3.21375092786949
