54
C16H29F3N2O3S optimized with ADF in AMS.
N         2.58505153599195       1.75340092565153       0.59599902394269
N         2.79836013507319      -0.22129358341245      -0.28622358430548
C         0.50127883223662       2.87192546931352       1.38267141656702
C         2.02940638789370       2.89137026509449       1.35933949960951
C         1.04966696460812      -1.93447741065188      -0.62066239799886
C         2.54634595238025      -1.63967750866194      -0.59517166287457
C        -0.14748985523568       2.13429152546279       2.55311523429517
C         0.29544678425737      -1.09563225870691      -1.65846922635069
C        -1.65564110511352       2.00130071707866       2.35318477027798
C        -1.16636867342141      -0.85417272179029      -1.28618054412796
C         2.16900793293511       0.48287650318407       0.66632598632077
C         3.49033533701975       1.86936656066903      -0.43198740819894
C         3.63112727390879       0.62755120453456      -0.98176410670980
C        -2.38384156212602       1.35317536132961       3.52705025397922
C        -1.87168028528595       0.08939273191588      -2.25906728673602
C        -3.87924787310985       1.19390159866642       3.26208699526996
C        -3.29512917423167       0.42288591077223      -1.82180802032244
H         0.15792306125208       3.92010724762870       1.38184387211185
H         0.15303828159564       2.46113974466653       0.42114460731748
H         0.63074525204592      -1.75739866328678       0.38697019247938
H         0.92334144649010      -3.01530139981685      -0.80428140989198
H         2.38199653303458       3.78035311019638       0.81910768289334
H         2.47066329777056       2.86906434276309       2.36947081487405
H         3.08278021726877      -2.25542509141883       0.14484878086182
H         2.99311499818363      -1.81704955572128      -1.58393508423204
H         0.06135572784849       2.67431684900754       3.49627770109869
H         0.28137766953479       1.12273023896846       2.68966764582881
H         0.35960979424893      -1.58624052418196      -2.64698688449324
H         0.77116897623506      -0.10736931643763      -1.77046644262427
H        -2.08301160002271       3.00281544959120       2.16048703716594
H        -1.84285542181393       1.41433295286270       1.43479461285243
H        -1.19585422699467      -0.39888246760769      -0.27611560916664
H        -1.71381358111116      -1.81384574032467      -1.21204210076853
H         1.42981910093044       0.09888088661869       1.35157228576315
H         3.84571669832985       2.84071784123523      -0.75422625877220
H         4.20110623174000       0.29185487615908      -1.83804941883248
H        -1.93468922862323       0.36423913733720       3.73626834946107
H        -2.22810232856205       1.96334697487893       4.43581236481247
H        -1.88369070835741      -0.36681607572765      -3.26617721510189
H        -1.27649294979825       1.01496012780892      -2.33721217394878
H        -4.35059488703390       2.17314576591871       3.08145964385831
H        -4.05261468460947       0.57241160118297       2.36900763287403
H        -4.39611864246836       0.72052343018544       4.11138093215222
H        -3.77535439731702       1.11830120714499      -2.52689644394098
H        -3.29276336841175       0.90857630665123      -0.83213628511917
H        -3.92064974171488      -0.48259752075354      -1.75442944860341
S         0.88483340059996       3.59232569484434      -2.01579158572448
O         0.91975168687796       2.11551640602427      -1.88376092628614
O         2.09453850258922       4.26657595559423      -1.48874789300847
O        -0.39655624444515       4.21739095328668      -1.67444271432432
C         1.02204553088529       3.83461926160107      -3.87049914140056
F        -0.00637781383800       3.21755487818635      -4.51392753651280
F         2.18613927791795       3.30645982017501      -4.35142976129292
F         0.99506007516197       5.15008733220963      -4.20288468979729
