78
C22H36F18NP optimized with ADF in AMS.
N        -1.17536307462338      -0.64723991789329      -0.19561131464900
C        -0.81528442571887      -2.10093954819050       0.11154572337258
C        -2.14285633701048      -0.16880521353721       0.87969898228825
C        -1.80809741444051      -0.57880527183030      -1.57498708969809
C         0.05069692545994       0.24266891048990      -0.18334826209582
C         0.08793517002287      -2.31273921105850       1.31364642974727
C        -2.80397428351883       1.17842511168884       0.65192213049787
C        -3.13397255421180      -1.29457980106069      -1.75053535961807
C         1.16039224830111      -0.14878672630305      -1.14606169108574
C         0.28628316810828      -3.81456098230330       1.54712123532331
C        -3.79004555681444       1.43455029810553       1.79908381643573
C        -3.54591416616965      -1.19767458411512      -3.22363552592385
C         2.38949138580406       0.73614861454424      -0.92177207895974
C         1.12236343933663      -4.08441418741373       2.79394347320230
C        -4.54253423930955       2.74965048809891       1.63090406196208
C        -4.87227236726633      -1.89550356409502      -3.50608609311169
C         3.52735917774592       0.39333938362000      -1.87879886733148
H        -0.35330650362750      -2.50430627834150      -0.80189168226799
H        -1.76963801764044      -2.61892489334276       0.26759863949205
H        -1.56475517783848      -0.15521917313940       1.81333735585305
H        -2.90201205111525      -0.95413989916029       0.97258874838933
H        -1.06428974183235      -1.00853982627528      -2.26054996086722
H        -1.90599419028848       0.49161847248291      -1.81287214119306
H         0.42093823736389       0.23735271052666       0.85204690408283
H        -0.30714616528603       1.25792508265941      -0.40605669212936
H        -0.36377682072515      -1.88080619606086       2.22028007046557
H         1.07430286489912      -1.83859666974402       1.16843439099227
H        -3.36385439413306       1.18827576607574      -0.29771104244184
H        -2.06775241149921       2.00058006739476       0.61426319148717
H        -3.91781917247941      -0.85436615439840      -1.11458895915665
H        -3.05686503839822      -2.35322769408706      -1.46552824979227
H         0.82925449591091      -0.03961216200815      -2.19171224567836
H         1.44843977110041      -1.20310466336720      -1.00141824860895
H         0.77127889554490      -4.26070775254636       0.65932731511309
H        -0.70058591186042      -4.29254804172875       1.64843546430072
H        -3.24125562760402       1.43244725206101       2.75755839460607
H        -4.50406700469711       0.59405221250543       1.84957174727596
H        -2.75091914813896      -1.64749272793172      -3.84666535204958
H        -3.61096766019683      -0.13326951698692      -3.51820620918593
H         2.73212907819035       0.62093452764312       0.12231607541397
H         2.10428314085908       1.79663084067016      -1.04419311363255
H         0.61939915092355      -3.68661725544177       3.68937498363099
H         2.11781389298592      -3.61578516829220       2.72185530197284
H         1.26682360853576      -5.16425034095877       2.94558433500217
H        -5.12737841645903       2.75159263156693       0.69753766422552
H        -3.85002673367058       3.60656361664783       1.60056373692697
H        -5.24334438077934       2.91074799766159       2.46330037373980
H        -5.69295391922866      -1.42472510360685      -2.94529686660884
H        -4.82985054620187      -2.95315349155847      -3.20536665932467
H        -5.11889788670183      -1.84960122134467      -4.57728982472885
H         3.21618174212850       0.52669914388569      -2.92698085726918
H         3.84730586578580      -0.65293649110469      -1.75170814505312
H         4.40215270117477       1.03686551909090      -1.70350157911007
P        -4.60318443622592      -4.03970877821727       1.71611980057086
F        -2.98342412658547      -4.35809457988222       2.03330268545332
F        -5.05196945385955      -5.47353374835193       2.40167636397503
F        -4.17421868683815      -2.55719026432685       0.98541090591247
C        -4.65211891324996      -3.12508542647776       3.48393199660448
C        -4.23192628047629      -4.91365609807271      -0.03674328665114
C        -6.54097781405578      -3.68707164802924       1.35093362513513
C        -3.30038627447404      -2.78582923291398       4.19102836322465
C        -4.14272868856067      -6.46792813797104      -0.08605770731884
C        -7.01755093819097      -2.42985433258244       0.55878063006769
F        -5.33451920734967      -3.86321491474817       4.41922686907277
F        -5.28643438335297      -1.89992175993398       3.37512875536332
F        -2.98033277640382      -4.48747025754021      -0.49078995430874
F        -5.10927426585487      -4.55582858152705      -1.03223726801217
F        -7.21565924160368      -3.61526888898985       2.54996646972482
F        -7.06892810574840      -4.76640327268883       0.67703548853184
F        -3.55004626717529      -2.05233299018536       5.31267764575791
F        -2.49129797900333      -2.01966815161553       3.39681245338211
F        -2.61376090044741      -3.88116283460439       4.57358151520111
F        -3.22310815147526      -6.93860789468176       0.78657538311308
F        -5.33237941374076      -7.05125049516697       0.16564829847984
F        -3.75448289502093      -6.85157880853996      -1.34099108103763
F        -8.37365829251781      -2.46498926864483       0.43919738285089
F        -6.50231720153831      -2.37454025100844      -0.69355395429501
F        -6.69619109284639      -1.27248154309195       1.19001153087442
