43
C11H17F6N3O4S2 optimized with ADF in AMS.
N         1.83052117252040       0.58050257677590       0.70144109424982
N        -0.26367643472332       1.02484666938341       0.34010772143710
C         3.05700646751938      -0.11934332839561       1.11152335397215
C        -1.73259779345251       0.98834402288042       0.39926770204750
C         0.57868404993925       0.15332150872831       0.91457967251730
C         3.71624211754682      -0.81583034556540      -0.07417452738878
C        -2.28765969661398       1.62564947957791       1.67188030325162
C         1.78822056258871       1.75874119635523      -0.00914316093094
C         0.47399505911600       2.04109059476346      -0.23286616319978
C         2.83799881958341      -1.89078788652360      -0.70534113061674
C        -2.14473114050053       0.74047242694733       2.90295820570884
H         2.76042665598865      -0.82912659923326       1.89667636450541
H         3.70877476685088       0.63553838659106       1.57349774751889
H        -2.03992074692640      -0.06563257785747       0.31123525226051
H        -2.08353562929559       1.51512076311710      -0.50064353553310
H         0.31350335835048      -0.70792242065058       1.51694344236929
H         4.00555677133030      -0.06388536764122      -0.82948461365948
H         4.65393903166259      -1.26032304373923       0.29956418057453
H        -1.77709517341753       2.58960127512524       1.83498025953258
H        -3.35205978853505       1.84587646418200       1.47908912901260
H         2.68528178725198       2.31494846231460      -0.24727982586230
H         0.00240637739532       2.88330915533713      -0.72294025146494
H         1.91084024262411      -1.46163900546424      -1.11823624100372
H         2.56057104815856      -2.65469364067365       0.03851206543713
H         3.36453942357837      -2.39502913813782      -1.52891166308575
H        -1.09435739019234       0.50908525375987       3.11759188356298
H        -2.70052544643231      -0.20316975650049       2.77879453064299
H        -2.53408310536761       1.25288495724001       3.79400643955747
N         2.46792412940959       1.01451921369285       4.04457250734677
S         1.46331490575289      -0.08711597815880       4.65903650739194
S         1.97775158881705       2.41591149535541       3.45310710973968
C         2.73706461833257      -1.02425782634245       5.67908984927834
C         1.99393631061024       3.61985765189862       4.90781122879362
O         0.45857728536381       0.39135312816563       5.59962756217779
O         1.05348445667158      -1.07032323757731       3.63953397557939
O         0.59169154326125       2.44756016381880       2.97773394326347
O         3.03893130283593       2.91532196984825       2.57916665304196
F         2.11135431551234      -2.07161215141769       6.26802643290290
F         3.27075315133493      -0.24097365773269       6.63655535878071
F         3.73442321081213      -1.50687834545723       4.89703787006116
F         1.90500774645682       4.88856726111890       4.43208044521042
F         3.14288636704182       3.50229090763772       5.60963756745763
F         0.95019747423899       3.39686148665362       5.73312468166103
