30
C8H12F2N2O4S2 optimized with ADF in AMS.
N         1.82134865513308      -0.21391477190717      -0.14594763190396
C         2.87786203997789      -1.20114660363509       0.18380398529299
C         2.56009698185249      -1.92666350668655       1.48773201514931
C         2.48302385610085      -1.00658820910863       2.70316978846158
C         2.00178454647077       1.08658457410246       0.16824052218352
C         0.70281120294187      -0.63336550120828      -0.77384172535559
C         1.02970864720913       2.01885674280129      -0.13566362013160
C        -0.29664382134727       0.26381583671489      -1.09616947688011
C        -0.13546114033619       1.60735601925855      -0.77423559051167
H         2.94410961837356      -1.88121461879476      -0.67693219854972
H         3.82262578509381      -0.64058373433174       0.23214710748765
H         3.35810542953366      -2.67478961424190       1.62925897438086
H         1.61772958835846      -2.49194048397764       1.37574429216151
H         3.42281478307671      -0.44748458990414       2.83616181830580
H         2.30656482670599      -1.58916044649941       3.61952449064535
H         1.66004639826260      -0.28003809187738       2.61324871456300
H         2.96595537727258       1.34588981496110       0.60109416324693
H         0.66455958645003      -1.68701705721238      -1.03923738069359
H         1.21618581089220       3.06728171610631       0.09365754218250
H        -1.17507604025503      -0.09325815263300      -1.63185541820975
H        -0.90386456349529       2.33377092293163      -1.04204704684280
N         3.54154432923134       0.19320640646464      -2.39022648171910
S         2.49670660352197       0.11136505763795      -3.60332160648618
S         4.53404340790734       1.42047478163693      -2.12195516665243
F         3.42715141648078      -0.08248532870647      -4.93811734214996
F         3.50918769630040       2.72140976310661      -1.90809459066086
O         1.80371582958705      -1.16204381738663      -3.44552915810698
O         1.72883783023871       1.31627118106789      -3.85696345041710
O         5.39027344847286       1.82231527178586      -3.21410611849554
O         5.07167765138763       1.20882480593505      -0.78141180339409
