35
C9H18F3NO3S optimized with ADF in AMS.
N        -0.61550344491840       0.56288271590766      -0.22470956994765
C        -1.58108835089570       0.35995170857558      -1.37766979854851
C        -1.23172412627043      -0.24015963611016       0.93672605570679
C        -2.94479834701967       0.32356339617586      -0.71345987869786
C        -2.69252093693154      -0.51313332552520       0.54964760202659
C         0.75564782733036       0.05166416474039      -0.58532671654313
C        -0.55430504081224       2.02583926099374       0.11492168273061
C         1.79073706381350       0.20304335790366       0.51788177146186
C         3.09885649422348      -0.47333256963982       0.11070707222081
H        -1.33372552209221      -0.61272353818191      -1.83241030359442
H        -1.42836125085282       1.16219930847015      -2.11264389237114
H        -1.12355337185784       0.36891788833444       1.84745480859663
H        -0.64607916599544      -1.16467469654508       1.02681504898121
H        -3.70019490554520      -0.11921130802719      -1.37831059628534
H        -3.27808766461450       1.33389087653212      -0.43380509239671
H        -3.36710668080209      -0.21502258159384       1.36343332691281
H        -2.83346768586574      -1.58388391926837       0.33297188857113
H         1.06544332329169       0.59575597497838      -1.49303305743399
H         0.62557965140718      -1.01041783295330      -0.85040838687944
H        -0.08840939909831       2.55385421191842      -0.72791373175421
H        -1.57258464886778       2.37823954554640       0.32010930611448
H         0.00605614032083       2.15245241271050       1.04722929868256
H         1.97497728921677       1.26796208740522       0.72559242935246
H         1.41267851708094      -0.23977503879077       1.45372872347767
H         3.84665750142926      -0.37047554163922       0.90949211369548
H         2.95379186195584      -1.54818169219464      -0.07963939387449
H         3.51678202939983      -0.01945244138404      -0.80179356565231
S        -2.19559385924208       2.57598838746077       3.19967714234102
O        -0.84321733093671       1.96077082253430       3.18631899627387
O        -2.92830154038107       2.49461591408503       4.46020363836354
O        -2.97688864510188       2.29200118335897       1.96896997778196
C        -1.81411997594885       4.40759624978960       3.01471941379798
F        -1.03701188953615       4.63750371554055       1.90395596439849
F        -1.13993693882327       4.89114867414055       4.08767275104578
F        -2.95087583485976       5.13443458695123       2.86745753664544
