38
C12H22N2O2 optimized with ADF in AMS.
N         1.83329464245565      -1.22660499722331      -0.45287077475601
N         3.02270310037331       0.58690778634615      -0.34223816639141
C        -0.51741968350619      -1.95907595730533      -0.24092936914871
C        -1.11348599728569      -0.57695563336784      -0.48358317295893
C         0.83663217579923      -2.21738572036341      -0.89044246820972
C        -2.46374442438373      -0.40294775458813       0.20990165705493
C        -3.09177006454033       0.97292243482287      -0.00051202569658
C         2.14069703933087      -0.09242213073204      -1.09652198828848
C         2.51609701536575      -1.29352744076693       0.74815179807495
C        -4.42570618629275       1.12149810923645       0.72790153909209
C         3.26643263193182      -0.14973916304515       0.80515729991282
C         3.64018776028268       1.85803599046555      -0.68748500813853
H        -0.40742279082410      -2.15426923052214       0.83979803960436
H        -1.19680281910456      -2.74268104330823      -0.62048544928380
H        -1.23230113188200      -0.40081954996017      -1.57129173742057
H        -0.42202746380527       0.20103029167341      -0.10694399272641
H         0.79139573681078      -2.17201649688892      -1.99013200340400
H         1.19519036966887      -3.20341332889541      -0.52296136720790
H        -3.16076924421320      -1.18271203202911      -0.15092982860383
H        -2.33296213045825      -0.58396783459129       1.29307205102796
H        -2.38827468714876       1.75154337089174       0.34950144276244
H        -3.23587471091208       1.14713435674194      -1.08290212877459
H         1.74457939361076       0.23081335073543      -2.05090779020560
H         2.42242248523241      -2.20581700338026       1.47227094656947
H         3.96082502149362       0.19808561225334       1.56146054138180
H        -4.29588121922891       0.97849870335497       1.81255661601474
H        -4.87209481746665       2.11514929868495       0.56852840241474
H        -5.14864686491586       0.36731108530069       0.37743078009700
H         4.70538224768354       1.70856060155831      -0.90870599516489
H         3.13892311931298       2.27636539464343      -1.56767905469375
H         3.52877767761324       2.55442861828918       0.15376707439893
C         1.52536257062115      -5.51355247013589       3.08539543753298
C         1.68296726044968      -4.37045556538005       2.07926733659427
O         2.34979019709853      -3.36427927951038       2.50631685472461
O         1.17192237840013      -4.51284960587567       0.93430779298353
H         1.32096316888865      -5.11109582893369       4.08777938288721
H         0.73222422714404      -6.20752214477116       2.77747716594599
H         2.47668889250062      -6.06508165362385       3.14575587979888
