54
C16H29F3N2O3S optimized with ForceField in AMS.
N         3.07861857941447       0.92545121423277       0.04367235704598
N         2.93522703196876      -1.28730458266256       0.23125698040626
C         1.47042320093982       2.77917011323319      -0.23971818753320
C         2.83207411522088       2.33959191464575       0.32097175082918
C         1.00805054739530      -2.62008881093922       1.02731961256715
C         2.51813919524597      -2.59532035060599       0.73743613719807
C         0.30309955732866       2.09841273080797       0.49144451429699
C         0.17667352850285      -2.30620310545318      -0.22628665367697
C        -1.05046858758062       2.54043488509565      -0.07506398408759
C        -1.32499742311062      -2.29125573311039       0.08215636453660
C         2.82847581885014      -0.10672118472449       0.87279355288235
C         3.36595294749315       0.37987176272562      -1.15544564540373
C         3.28417945086663      -0.99205075837098      -1.03737426447762
C        -2.20063522602040       1.86023469707981       0.67811114651573
C        -2.11883897284502      -1.77776318950864      -1.12630801629330
C        -3.54865699402915       2.16805082678888       0.03440425928232
C        -3.61257500281951      -1.71398416265467      -0.82757445051707
H         1.38007289896225       3.88109111471559      -0.12360396388072
H         1.42424879314991       2.54473673361564      -1.32582950302707
H         0.77687416801461      -1.88065135680159       1.82493594571993
H         0.73387902752855      -3.62796539148313       1.40792473024448
H         3.63704401022895       2.94886149469480      -0.14377040896647
H         2.86452204059541       2.52447113977941       1.41730205601680
H         3.07701048218997      -2.82039148108047       1.67105664710934
H         2.76394122472204      -3.38780908377701      -0.00325757903990
H         0.35124596718424       2.34825779428663       1.57415470411172
H         0.38554982476457       0.99678075099328       0.37970643664953
H         0.38489653935884      -3.06755506709114      -1.00977863225902
H         0.46765311160270      -1.30974488178228      -0.62173255862699
H        -1.15215819415483       3.64416285057466       0.01821267561380
H        -1.09992359364548       2.26914113478311      -1.15286701284777
H        -1.51853267972010      -1.63038045547186       0.95533060248564
H        -1.65836849662169      -3.32030228911006       0.34032067852756
H         2.48399895157803       0.00308472058070       1.89371946456847
H         3.55139263076348       0.93801653852930      -2.06403132684916
H         3.38791201531552      -1.71292335781287      -1.83814397430372
H        -2.05169095571820       0.76021933404600       0.67924692448427
H        -2.21395768294155       2.21014489446738       1.73330861774846
H        -1.95251867025442      -2.44931935598102      -1.99654812552308
H        -1.76882275790419      -0.75789455317964      -1.39903470978807
H        -3.74243269395411       3.26152880761024       0.04763625332536
H        -3.56752221296264       1.80176438558614      -1.01432569128012
H        -4.35495485540558       1.65588203633882       0.60088369704897
H        -4.14824788061966      -1.29492236296543      -1.70523315175855
H        -3.80452440200384      -1.05853055658643       0.04816337357401
H        -4.00738075743383      -2.73118683734527      -0.62272656181594
S        -4.82629047707889      -3.52268485526866       2.73181132550397
O        -4.00392588276243      -4.37290010203238       1.75198378923170
O        -5.44990560831588      -2.44963254465994       1.82748518387178
O        -3.75327518712749      -2.74494557966562       3.50841683571570
C        -6.00937794517061      -4.44410565626130       3.75136327994559
F        -5.32758793364747      -5.33817552567429       4.55443115669842
F        -6.88290373025982      -5.13340649150973       2.93197176270675
F        -6.71957363417766      -3.56162347884107       4.54273624449316
