49
C15H31NO2 optimized with DFTB in AMS.
N        -1.57758710577788       0.19177799663842      -0.15233841963335
C        -2.60293856003118       0.33015675937942      -1.23353585920212
C        -1.71302670998319      -1.16093314650232       0.47629501495339
C        -0.22325174127790       0.29514840453300      -0.82476904820016
C        -1.71304547787597       1.26177319128891       0.90709104474418
C        -4.02327360526708       0.11645406693055      -0.72687157960100
C        -3.12418404311041      -1.47662161287502       0.96527119649154
C        -4.16010674262946      -1.28699445407791      -0.14060803801364
C         0.96124560045519      -0.18303227714915       0.00981039428590
C        -1.98321051947992       2.66052395819859       0.38014668065477
C         2.25542856595715       0.14521478174055      -0.74758718054120
C         3.47212553213164      -0.03593577722549       0.16316289267040
C         4.76575768008172       0.33941989649429      -0.56543480978521
C         5.98286332812400       0.18455838112814       0.34509259557133
H        -2.37293289030373      -0.42315777752311      -1.99266583066333
H        -2.48281807679274       1.31820695356114      -1.67943692444104
H        -1.01691842956609      -1.20162664262609       1.31553459439773
H        -1.40915714450060      -1.89424181504912      -0.27624900279997
H        -0.07427516308121       1.35455426749473      -1.06698158290876
H        -0.28184850601951      -0.28570480272486      -1.74963669974942
H        -2.51079425700432       0.95830849237536       1.58722395098267
H        -0.76435948927013       1.28190240134631       1.45236852020466
H        -4.70317016086351       0.23736758742653      -1.57420918814920
H        -4.28582514174885       0.86532160861287       0.02404956580054
H        -3.38165735102797      -0.85153653734834       1.82427337862243
H        -3.12514785181775      -2.51641709632276       1.30338487065892
H        -5.16428235381948      -1.42692908342292       0.26652259601649
H        -4.00367409658866      -2.03173443580759      -0.92799032234967
H         0.97672982048903       0.33956166291803       0.96922433212094
H         0.91106217836452      -1.26119361990890       0.19334627805273
H        -1.23828028937726       2.95602556215735      -0.35813004540024
H        -2.98464414027427       2.76686397673271      -0.03598171794863
H        -1.88499274044187       3.33637589982145       1.22957182765134
H         2.21565012735206       1.18294300389351      -1.09156575856305
H         2.34339522297774      -0.50151252892405      -1.62825334234023
H         3.52939410611468      -1.07612986129275       0.50491568261277
H         3.35439978068671       0.60157694757711       1.04553265756636
H         4.88783300192909      -0.29782880368253      -1.44863579997645
H         4.69943423740695       1.37719560564479      -0.90822568756629
H         6.07881723575249      -0.84813586759888       0.68500399817393
H         6.89134294395128       0.45883316151239      -0.19234083467516
H         5.88866355216833       0.82974344512764       1.21973237436168
C         2.46221243913047       4.15298547543848       0.81486711629765
C         1.32100382268139       3.14444004481495       0.53630852473038
O         0.91019400298179       2.49311978302028       1.51970622070162
O         0.91368436429464       3.06665011551288      -0.64516184518177
H         2.07879308108634       4.94889600504633       1.45229984609343
H         3.26888798623505       3.64483167083945       1.34168009171235
H         2.83365861367871       4.57637456785563      -0.11646550514025
