40
C10H19F2N3O4S2 optimized with ADF in AMS.
N         0.73065318961572      -1.71321216019006       0.55178391605382
N        -1.26651096665012      -1.34149459215291      -0.22442757289310
C         2.00319578301236      -1.54736769371587       1.27448384872070
C         2.95598022968930      -0.59821869610349       0.55277826834735
C        -2.56619532079809      -0.70496737735826      -0.48635093467893
C        -0.35002340328070      -0.92583446965797       0.66335716956163
C         2.54710611933244       0.87103137324971       0.62895764271410
C         0.50404131279011      -2.63924699128987      -0.44338198103926
C        -0.74805368608316      -2.40610074190705      -0.92913124579824
C        -2.49478043782508       0.31213631983085      -1.62391193844768
C         3.42968698621159       1.74888919479742      -0.25532481289863
C        -1.70500843405646       1.56900442497415      -1.27799229530764
H         1.76008636565630      -1.19187779843817       2.28801894215716
H         2.43489505521688      -2.55501385867280       1.36394273878314
H         3.04379006893764      -0.92027964572157      -0.49799651562878
H         3.95152078507406      -0.72982678874134       1.01321791465582
H        -2.89564380755127      -0.23991730067700       0.45596829518558
H        -3.26741158767224      -1.51943992175917      -0.72199188085051
H        -0.46544545657542      -0.09889093635317       1.35102914348111
H         1.50289379929698       0.98584808784611       0.29297392061835
H         2.59270744590671       1.21101218687404       1.68157679821125
H         1.27329391072474      -3.32583940315863      -0.77569110890122
H        -1.28298213646560      -2.87007380786168      -1.74714739692443
H        -2.05642564823305      -0.17934936480152      -2.50839043487764
H        -3.53596163292390       0.57350785799983      -1.88208649932229
H         3.31841497932839       1.45463641921035      -1.30972874559391
H         4.49116524465254       1.64732050411597       0.01917491490867
H         3.15557223013864       2.81087591777182      -0.16725686086372
H        -0.66853316709707       1.32646200972748      -1.00321068340068
H        -2.17862927469099       2.13181198652138      -0.45638782106848
H        -1.63893701846135       2.22743521985541      -2.15668485224283
N         2.24237078141541      -0.72357811963228      -4.10373763499896
S         0.81235400159872      -0.28502849442314      -3.57011407530899
S         2.87721730491208      -2.15876895023974      -3.73789649273347
F         1.07222829782975      -0.05881307770800      -1.90693328258183
F         1.86547640592278      -3.23795289267899      -4.46923854607532
O         0.51624317923093       1.05582243409373      -4.02878585444271
O        -0.23164761995780      -1.30447261325350      -3.57707727689963
O         2.78993937870369      -2.52260357872872      -2.32503507234134
O         4.13465629722451      -2.28057828084334      -4.43704643617847
