55
C15H29F2N3O4S2 optimized with DFTB in AMS.
N         2.79087904077315       0.69628812429619       0.67929756148137
N         2.66374019218538      -1.43965424554642       0.44247583504935
C         1.21834229663132       2.56852282963280       0.93345628380741
C         2.61059391839164       2.01736147252330       1.27331597449233
C         0.83706416877630      -3.05637735462402       0.75160817207864
C         2.35404227823524      -2.83917633481735       0.72411803258264
C         0.11879142823990       1.51108612422088       1.07953380611484
C         0.13010089055466      -2.57511393745416      -0.51669073604007
C        -1.27158502055149       2.14319320541632       1.18050420010222
C        -1.38794985494157      -2.72415291947618      -0.37373067840853
C         2.56420559827636      -0.44622793886884       1.32305961194278
C         3.02862946831126       0.43128010176083      -0.64147097259895
C         2.94925451225897      -0.91829602992246      -0.79063375420132
C        -2.33530060570902       1.06078345463997       1.38755846730120
C        -2.11934198933490      -2.15167253984854      -1.59135883605096
C        -3.73348940315315       1.66451124560368       1.49533284483880
C        -3.63457446157654      -2.25521252036240      -1.42732546729783
H         1.03119492543884       3.39541137816355       1.62386762365532
H         1.21917885971216       2.96608013266113      -0.08597119531332
H         0.42418200130972      -2.53336976949771       1.61565458989463
H         0.66411571243918      -4.12669995952004       0.89273134575876
H         3.39405559675380       2.67716550603211       0.89332993331297
H         2.72167055466991       1.90842714100521       2.35429356454478
H         2.77549641827703      -3.08611641703701       1.70175808947417
H         2.83152093221630      -3.44718138821847      -0.04812137033594
H         0.29974554649528       0.91982385727534       1.98018161202144
H         0.15265144946986       0.82794891546051       0.22293764644150
H         0.48419326657554      -3.14356344028673      -1.38398833610266
H         0.36774705677944      -1.51930857154761      -0.68893809510111
H        -1.29051334055247       2.83446866279117       2.02870603165574
H        -1.48673547127403       2.71489019683869       0.27077624482004
H        -1.71480378392680      -2.19587197097099       0.52776548842642
H        -1.64267439453673      -3.78200369061990      -0.25265291193002
H         2.35242102269291      -0.53554142051034       2.37827783407375
H         3.23468139748167       1.20978809347878      -1.35485030183327
H         3.07689230609763      -1.54068008012742      -1.65883324088041
H        -2.30566491650438       0.35531146327546       0.54910035377391
H        -2.10620337242697       0.50639582298899       2.30237843670280
H        -1.81004181020973      -2.69273698310401      -2.49238346341172
H        -1.83964831515586      -1.10006910623414      -1.72017542088298
H        -3.78666130529700       2.35142486218158       2.34067634235039
H        -3.98855818873679       2.21162833300836       0.58592278849682
H        -4.46979099890440       0.87416393256445       1.64345945719578
H        -4.13489802080994      -1.84067455482977      -2.30272776393632
H        -3.96044118968095      -1.70161950743431      -0.54590385848526
H        -3.93676719118043      -3.29713443307517      -1.31419295573535
N         1.50502367300696       0.10320433384475       4.15936285297554
S         0.72906186286792      -1.27322176804441       4.27373106628198
S         0.72793709759933       1.42401183725797       4.62333700832106
F        -0.42023811847967      -1.13829872870224       3.10491142592602
F         0.87826994064540       1.40161540767324       6.22049199237831
O         1.60516870228720      -2.27444892336168       3.73207181553886
O        -0.00062912898857      -1.55122759249310       5.46009205815537
O        -0.67631532465621       1.45918325668098       4.37990943940646
O         1.52901657203733       2.53103068365910       4.19663155777167
