58
C18H34F3NO2 optimized with DFTB in AMS.
N         0.21376877893719       1.90362735340306       0.49034348655675
C        -0.20538493480626       3.02346592748897      -0.41410785172047
C         0.72343081970698       2.62702187709653       1.70538356663018
C        -0.94737743259895       1.04478569769168       0.89225719114235
C         1.30262199486314       1.11659932736303      -0.17658637300396
C        -0.86621662969527       4.04319443866755       0.50026210321436
C        -0.12007224771580       3.89654453719937       1.83391284363819
C        -1.56527416596947       0.22485908706303      -0.23885352198552
C         1.89133183024182       0.00724007220360       0.68799155591311
C        -2.80552240661441      -0.50983519438570       0.28418523152545
C         3.15619825618428      -0.52512638881339       0.00166217017392
C        -3.44256762124672      -1.36288360946422      -0.81697062224967
C         3.83763639062252      -1.59827370318667       0.85367327118404
C        -4.68161634667611      -2.10031625088352      -0.29933304452675
C         5.10792005160040      -2.11537176191509       0.17115169827716
C        -5.31857009465146      -2.95292746973526      -1.39513167162690
C         5.80233674384912      -3.18005903008791       1.01847712977071
H         0.71213755302345       3.44300137550484      -0.83552381570797
H        -0.84902563935022       2.64864121248915      -1.20826976751483
H         0.65853382835249       1.97437608688393       2.57583777063791
H         1.76407500618888       2.89204902387527       1.51020570152755
H        -0.59183465168322       0.37332577552252       1.67771746588461
H        -1.70066420667121       1.70670261964636       1.32611094669304
H         0.89444832738372       0.71351646313273      -1.10566311734495
H         2.09381545683034       1.83111376840117      -0.42871451743798
H        -0.75599212636985       5.04517817376190       0.08463859463761
H        -1.93251033144700       3.83671155313449       0.62346607512233
H        -0.81894982381942       3.82972446678828       2.67015540867952
H         0.54252025783394       4.74768466851483       2.00019253424729
H        -1.85478684813823       0.87045474176734      -1.07190613324592
H        -0.84692507767847      -0.50898597803949      -0.61232597235357
H         2.15759505006151       0.40074822373683       1.67291962743964
H         1.17325984577684      -0.80726034006557       0.83006035412618
H        -2.52045721589354      -1.14999673170265       1.12586996843012
H        -3.53437598719178       0.22083500397728       0.65101981222939
H         3.84449683939778       0.30916242132916      -0.16578703631439
H         2.88969119933088      -0.94261304093044      -0.97501274306942
H        -3.72334161769817      -0.71976293919463      -1.65793516254758
H        -2.70958750895745      -2.08987490628488      -1.18270602463758
H         4.09473829025705      -1.17714654750137       1.83185970019291
H         3.14474525832554      -2.43128352420963       1.02086151934610
H        -5.41218164152922      -1.37093116276270       0.06653635756339
H        -4.39787909839225      -2.74071120045425       0.54263347086305
H         4.84954147534267      -2.53847307101261      -0.80551559404903
H         5.79405934004370      -1.27932872638556       0.00262166779069
H        -5.62616404381760      -2.32863077414392      -2.23504972399551
H        -6.19663055359951      -3.46709503466384      -1.00428347493251
H        -4.61114562735893      -3.69957724187248      -1.75823950455002
H         5.14062388862993      -4.03235211968074       1.18149206695301
H         6.70247029002298      -3.53109235317795       0.51338282044778
H         6.08613519452804      -2.77099403215851       1.98922267183690
C         3.62493884452230       3.71811416261101      -0.42614813595815
O         3.92239801478385       2.58640071912945      -0.79957577486520
O         2.55014663532729       4.15581125686437       0.00874008645929
C         4.79631134278451       4.80612958562866      -0.50061227385812
F         4.56611552468954       5.71262731219887      -1.46963958034297
F         5.99661748918095       4.26472855827425      -0.74678987237418
F         4.90416124874691       5.49038285656344       0.65438567087865
