61
C17H24F18NP optimized with ForceField in AMS.
N         2.00514186342444       0.42115094009426       0.08799244502460
C         2.22835612815651      -0.89616457417756       0.74306858423440
C         3.12490671457518       0.57655335690856      -0.89046018211330
C         0.69978151971267       0.45739466601695      -0.64033853442130
C         3.67107075571507      -1.28736976057496       0.50202434351865
C         3.97602941662424      -0.68306992355822      -0.84296666223036
C         2.07601466198768       1.51268737062272       1.09427957710740
C        -0.54598779617580       0.27275509775231       0.25768928681360
C        -1.80856004842058       0.10387528531738      -0.59745392833161
C        -3.05322933850838      -0.08050567727044       0.27850662785564
C        -4.31409748907314      -0.21480237775433      -0.58333520022943
C        -5.55639722377359      -0.40583543261327       0.28143741424798
H         1.59282043154820      -1.69185958321560       0.28969442755951
H         2.00768393697926      -0.88374500901946       1.83490720699900
H         3.78092313663139       1.44700802681975      -0.65400203715311
H         2.77550152286433       0.74058160593725      -1.93601814132296
H         0.69083194081126      -0.33813802207215      -1.42179299313777
H         0.59441797324844       1.42803304451295      -1.17755550948504
H         3.80885118577444      -2.39036093800995       0.49860848275969
H         4.31777709375730      -0.83021113321875       1.28213007006168
H         5.05789472993682      -0.45999320464673      -0.96070499053533
H         3.65480679832215      -1.38302687415484      -1.64635500799476
H         1.33486000527406       1.36906917829520       1.90895920980522
H         3.07805441726567       1.54279737678717       1.57871088377714
H         1.89009239658765       2.50163396085394       0.61930060711110
H        -0.43154563187917      -0.61946554128130       0.90851601433813
H        -0.67940034710942       1.16688680815923       0.90277494299065
H        -1.69232279571911      -0.78506764167679      -1.25610835146537
H        -1.93872340627601       1.00362815274717      -1.23883033046987
H        -3.16199010829372       0.79570286692337       0.95507011770697
H        -2.93244935736779      -0.99519071446238       0.90023675666251
H        -4.44423063328103       0.70021588891463      -1.20153079054175
H        -4.21240431567112      -1.08799482258170      -1.26429129946680
H        -5.69258448588322       0.46389358704584       0.95902698511969
H        -6.45202933467127      -0.49236172843799      -0.36934602456233
H        -5.46625348258365      -1.33281623431136       0.88679893891510
P         9.39564682246551      -0.40073116769377       0.73259920632813
F         8.36583966501619      -1.31506666943741      -0.30160064113101
F        10.09378617258157      -1.38766574047780       1.96108760457848
F         9.06753121553469       0.68064979250917      -0.56488659091899
C        10.71264708232149      -1.43137144984928      -0.24854460096366
C         7.71468066727889      -0.59713740878013       1.67344487716472
C        10.06249816812829       1.26657892058823       1.44317336442941
C        10.75077093942329      -1.26081980681780      -1.79060365456865
C         7.65093199343753      -0.08626398049650       3.12925209987169
C        11.37713170487657       1.81344978165889       0.85552038131490
F        10.49386063266303      -2.78348188626907      -0.01387286783706
F        11.97607750666233      -1.14375510961224       0.22873330914776
F         7.36219333092346      -1.94291397911896       1.73323668920560
F         6.73415423080283       0.08132717132241       0.96673960297685
F        10.29495214670524       1.10685586217748       2.79730596604398
F         9.09564153567280       2.25221135777466       1.30077583465148
F        11.82082848811265      -1.98291001158140      -2.28950005402932
F        10.92267006218175       0.05370244645864      -2.16732603902452
F         9.60265015933926      -1.75222086306749      -2.38525474735393
F         6.44317932214953      -0.47590455721852       3.68203073620757
F         8.66090928702841      -0.62523274162083       3.90379378488699
F         7.70032676570183       1.29225028175951       3.18747885718523
F        12.45319155561884       1.04614347629701       1.25729217626284
F        11.57950820711841       3.09441578166318       1.33874229649332
F        11.34050492704589       1.88596477866107      -0.51916162596939
