37
C9H20F6NP optimized with ForceField in AMS.
N        -0.40369577114503       0.16998023879933      -0.06113256512258
C        -0.96882692441298      -0.89150764803749      -0.94971800567330
C        -1.46319141878340       0.42092786677430       0.96370492872275
C        -2.43252595057635      -1.07820074398697      -0.60058944464261
C        -2.50999833132736      -0.66937112912941       0.84301671568663
C         0.83831177899197      -0.32920478758889       0.61513509795130
C        -0.15616274036497       1.41316085179065      -0.86141391623717
C         2.02149912243378      -0.60456649172132      -0.34415882862554
C         0.46042042173899       2.57478860788731      -0.06072695441125
C         3.18046732597647      -1.27156600603744       0.39168382385100
H        -0.47462974879069      -1.87730990048114      -0.79272789654207
H        -0.86686679107302      -0.65875936156182      -2.03467096848652
H        -1.98856470919775       1.39005204316453       0.79809051406727
H        -1.06985267692650       0.45305638008516       2.00574411470536
H        -2.76365288939014      -2.13002176838121      -0.74417787055499
H        -3.05900776862182      -0.39899919872677      -1.22069156956856
H        -3.52553398233041      -0.30273881754731       1.10881997679553
H        -2.23771206327750      -1.52898642797876       1.49488399539692
H         0.60631481895416      -1.26865730039090       1.16952728564967
H         1.17859777254948       0.39421054344581       1.38929581150512
H         0.50796679954582       1.20085179716455      -1.72798011322902
H        -1.11222678865915       1.77417474793974      -1.30579566715507
H         1.71160721204646      -1.26373868080962      -1.18104875445410
H         2.40053963126461       0.34514904315914      -0.77462467554928
H        -0.11155787781873       2.78346840833777       0.86621138152712
H         1.51662542407890       2.36296717141948       0.20271987372089
H         0.45147137839288       3.49277674366392      -0.68527574945913
H         3.55937544826252      -0.60503309335924       1.19527728683002
H         2.85461986784648      -2.23523689820701       0.83748481894939
H         4.00633603957247      -1.47314244087856      -0.32273212513605
P         0.65704043957621      -5.41649770578111      -1.38650563315696
F         1.50725355457619      -4.23399431582118      -0.47753516317715
F        -0.51958421287462      -4.30251136722528      -1.95445363960961
F         1.66221072196709      -4.99979300571037      -2.71503736047767
F        -0.22220577502806      -6.61333265380306      -2.24889541370033
F         1.74996552876344      -6.67690107505062      -0.97832335656029
F        -0.24138413313944      -5.68151850341621       0.05282325877031
