34
C12H19NO2 optimized with ADF in AMS.
N         1.99666672019769       0.08211466157955      -0.51974216645145
C        -0.41015698247599       0.02744550655083       0.09079513692025
C        -1.84025922562395       0.07030102206156      -0.43485433742974
C         0.62789575659868       0.19044251771962      -1.01463808846657
C        -2.87852447196873      -0.05078800130409       0.67868620023500
C        -4.31218675801467      -0.01873073510070       0.15856796316939
C         2.58978183626546      -1.15767889849199      -0.39694597391287
C         2.56857123124730       1.14238878144665       0.14931257422682
C         3.80796765519150      -1.31960207238076       0.16436435803764
C         3.78901408502384       1.05604505541254       0.72337322689001
C         4.63119684128754      -0.14239033718248       0.51871394304327
H        -0.22538396171020      -0.93003665928834       0.61089590671104
H        -0.26133013632788       0.82394674948956       0.84186322606148
H        -1.98985708988014      -0.74728962216995      -1.16523336315944
H        -2.00560444705208       1.01498780203774      -0.98762858649469
H         0.49202278754518      -0.57708147616761      -1.79370463343373
H         0.52045413392689       1.16855635302145      -1.51349931730069
H        -2.72480386744573       0.76954025152767       1.40301394313776
H        -2.70246360718200      -0.99071190195657       1.23339870123121
H        -4.51624642121324       0.92415796577976      -0.37444163115711
H        -5.03940910445799      -0.10710703166960       0.97969121777517
H        -4.49407538460340      -0.84699453626773      -0.54516386993237
H         1.99076335365071      -1.99522185662739      -0.75461277990482
H         1.94968663850751       2.03694986347437       0.21895467772259
H         4.23029440892587      -2.31712714223706       0.27919323269331
H         4.17923390459130       1.90260432005509       1.28722906179315
H         5.32949741491188      -0.34307564931056       1.34050637434422
C         7.51370869721509      -0.25618355808223      -1.93514822607616
C         6.67293472966290      -0.57429555097992      -0.72335562164036
O         5.55659196383409       0.18272121435867      -0.67646715654507
O         6.97728567313020      -1.42659971127522       0.09782268053030
H         7.11660138513272       0.58865249577624      -2.50967041397987
H         8.54066255274066      -0.04495068114057      -1.60713732853242
H         7.54944924176902      -1.15053184945853      -2.57375953260522
