64
C18H26F18NP optimized with ADF in AMS.
N        -0.24371244507885      -1.43184430242490       1.17065710570126
C        -0.24785544308373      -2.75240169507366       0.41903642509707
C        -0.76771158499215      -1.83685675082653       2.53818575520218
C         1.15653984169395      -0.86803399722681       1.30189892970120
C        -1.52491242032615      -3.46060498150549       0.86419809854121
C        -1.83410747904797      -2.90114009584179       2.27674024523126
C        -1.19750775520837      -0.47299900996048       0.48744906695687
C         1.82966245862078      -0.53259849902132      -0.01440566010785
C        -1.21512552865838       0.92844152131604       1.06410803453011
C         3.24485956148008      -0.01474902691071       0.25862354162550
C         4.04603552491616       0.20140346284544      -1.02182206064071
C         5.44474535159537       0.75274683862127      -0.75117140561327
C         6.23682217245362       1.00173289584459      -2.03170543099883
H         0.64489293210078      -3.29300582198963       0.75259664872348
H        -0.18452386000543      -2.55239656842447      -0.65735472007155
H        -1.11949117905907      -0.94372492752538       3.06756420855127
H         0.08957819806911      -2.26026586451675       3.07223259697685
H         1.73278944794839      -1.63489561615261       1.83504705212591
H         1.07987880979585       0.01143089185454       1.95876257758673
H        -1.35524045037167      -4.54612042309968       0.87838302097991
H        -2.35695454124603      -3.26666379620337       0.17129362951594
H        -2.85085981763485      -2.48478605499700       2.32474847031680
H        -1.75802196741614      -3.67883270244344       3.04942238582062
H        -0.90508069539316      -0.45284870584357      -0.57220915890549
H        -2.19187097461276      -0.93777080665154       0.55364754904878
H         1.90302541650356      -1.43950397822875      -0.63772741257503
H         1.26403792442435       0.22511892496043      -0.58580516341412
H        -2.00509831937081       1.49927779769853       0.55344541274788
H        -1.44568489673188       0.94149421783065       2.13902984921990
H        -0.26540249024049       1.45512243208597       0.89877755738395
H         3.77151311899608      -0.73864526283709       0.90226794525977
H         3.18641408311107       0.93343506171602       0.82506176487143
H         3.50205852817756       0.89267956280797      -1.69426330172038
H         4.13317354156024      -0.76164485391190      -1.55860087019499
H         5.35759342756591       1.69354244276666      -0.17705462524903
H         5.98878653387984       0.04126403213987      -0.10492305504468
H         5.71935509551734       1.72805461174104      -2.67973682581755
H         7.24044867102061       1.39805516743636      -1.81647695710547
H         6.35882612014841       0.06855100443046      -2.60466773673400
P         3.27454399752066      -4.00781664465704       3.14583304252962
F         1.69184934220748      -3.76484877642621       2.53632313136800
F         3.71344820995298      -2.42327629043367       2.80399273690727
F         2.82655151906657      -5.56352173391357       3.49202898713795
C         2.46995175859976      -3.29581337547223       4.81176699662692
C         3.72691423550232      -4.43601005714815       1.20168628404284
C         5.11364427980974      -4.48737376333134       3.77320207540993
C         1.39400664789075      -4.13358145001048       5.57199111529729
C         5.08261459216609      -4.12263691423034       0.47007710118210
C         5.55679494663907      -4.75638607702767       5.25203582793035
F         1.81118121829883      -2.10033774486839       4.51548654190397
F         3.41685224484469      -2.96050214094791       5.74308496478012
F         2.84804348832822      -3.67571182742546       0.41372844413646
F         3.44890984860235      -5.75007975855427       0.93036551132905
F         6.02358447794321      -3.56883882654515       3.29853015714130
F         5.36181669823020      -5.69018628512975       3.14170231880144
F         0.93363294209260      -3.40750030701460       6.63334617577758
F         1.87981762965000      -5.29359698463260       6.04694044510315
F         0.31890825407028      -4.40671992494954       4.78177424292382
F         4.89939404202045      -4.33446670617227      -0.87068863344936
F         5.43030065072294      -2.82056834162873       0.62555556635597
F         6.11134381594534      -4.89985421000682       0.84579447060052
F         5.84753695918213      -3.61328550435120       5.91281889902016
F         6.69570109109999      -5.50355824802640       5.24038672970638
F         4.61949111771217      -5.44731353337513       5.93828103601421
