46
C12H26F6NP optimized with ADF in AMS.
N        -1.29614949198984       0.14094794256562      -0.29832573374490
C        -1.42480067324776      -1.06616375549102      -1.21168597221282
C        -2.59425015375484       0.10620029975707       0.47519994862291
C        -0.11091677674521       0.01229897907019       0.63498952662546
C        -2.88606924881871      -1.06629858424803      -1.65587055716436
C        -3.66109556061082      -0.32146081264162      -0.53646685069615
C        -1.21716427415164       1.39654074589857      -1.16074121989971
C         1.22999036764420      -0.04002767271578      -0.07123522077146
C        -0.95938784106869       2.67669172549854      -0.40034542386706
C         2.38128553385672      -0.15988463227961       0.92923540165996
C         3.73777798240672      -0.15712514378328       0.22184749160726
C         4.91900662426595      -0.28070682815840       1.18252446095539
C         6.26684989576237      -0.26570948708991       0.46452140239635
H        -1.19135258360948      -1.94212856614990      -0.58675090386162
H        -0.69466450459532      -0.97897960715491      -2.02789940646361
H        -2.76653718532365       1.08282132927230       0.94349394602224
H        -2.46444648484657      -0.64673127218523       1.26601182252683
H        -0.29106082320505      -0.90931518254081       1.21328624437306
H        -0.17006066940270       0.86218496376072       1.33255991419177
H        -3.23908410638120      -2.09834624771040      -1.79253699185934
H        -2.99246812792417      -0.55815933471167      -2.62500901477463
H        -4.20184830068963       0.54717372190358      -0.93865445479315
H        -4.40714688635315      -0.96373319711536      -0.04651566267715
H        -0.42803911872643       1.22271549472635      -1.89978736034381
H        -2.16903591419288       1.44260889221546      -1.70663883235901
H         1.26132932227628      -0.89153744304415      -0.76856287451967
H         1.38064437028756       0.85207774653855      -0.69777191464197
H        -0.98692300995837       3.49262372865751      -1.13899371063281
H        -1.71438000795785       2.89646242174703       0.36883482761636
H         0.04123431898116       2.69702487707276       0.05300433742586
H         2.27613823466822      -1.08920881532963       1.52195151957952
H         2.34433882236900       0.67935934492831       1.65030533930098
H         3.83424634934132       0.77120813464319      -0.37079043903280
H         3.76824061958876      -0.98374113181444      -0.51203318508935
H         4.88121804835482       0.54720264708256       1.91549033608894
H         4.82022039565796      -1.21571808255263       1.76571767338636
H         6.39914635559923       0.66752672878756      -0.10503889063783
H         7.10272893599964      -0.35039131743946       1.17636242062864
H         6.34319703968137      -1.10177088006706      -0.24834005939949
P         1.25407929932217       0.81618694050026      -4.18041762894570
F        -0.39486788729404       1.10673601853006      -4.13935479731588
F         0.98536010390717      -0.50935836490718      -3.16265528086031
F         1.05777794617193      -0.15513864542967      -5.48240453818432
F         2.86228276840955       0.50749839150766      -4.12762571262433
F         1.47901631582685       2.13122066035738      -5.12487013634169
F         1.40669710916904       1.77976071893891      -2.80578541949296
