65
C19H25F18N2P optimized with ADF in AMS.
N         1.85328739017476       2.46125888711551       0.29477083860257
N         1.04781858638657       1.80463501785640      -1.60987277458008
C         2.73181353169212       2.54774078176856       1.47047827422650
C         0.93140184979738       1.11334460053993      -2.90896978170478
C         2.42132605856371       1.44716362642546       2.48270175138456
C         1.04477292565227      -0.39808989359760      -2.74738548812777
C         2.61950134243920       0.03999011533417       1.92376690899072
C         0.02291205820369      -0.99301261476524      -1.78249111369234
C         2.10141721397972       1.71307237013775      -0.78891191126142
C         0.60638218413237       3.03879393466919       0.16564012916391
C         0.10235504796490       2.62592462352041      -1.03502231319563
C         2.40980418684470      -1.06136782561013       2.96130095806894
C         0.21461984919068      -2.49567268052556      -1.57735225839119
C         2.58038415319861      -2.45253029959190       2.35503674588416
C        -0.77659355126635      -3.08716677414116      -0.57934595178073
H         2.59290443203512       3.55150641764710       1.89774837540899
H         3.76415458451225       2.47375369327115       1.10175347320551
H         1.72079859734457       1.50965200339447      -3.56274222920507
H        -0.04959643778402       1.40058048249669      -3.31530646044109
H         1.38940737107623       1.56848187616374       2.85887104793432
H         3.09540719598374       1.60664112786577       3.34292168376981
H         0.93043242283443      -0.83769914905721      -3.75314410979020
H         2.07068502390072      -0.64918009199252      -2.43148246260605
H         3.63619107781832      -0.04531626100165       1.49961847764841
H         1.91449757729871      -0.13245490935790       1.09009028612115
H        -1.00164166844485      -0.79701203732297      -2.15271997380683
H         0.09636309673193      -0.48964268913343      -0.79962173070345
H         3.01402704773360       1.16605260921985      -0.99666628569429
H         0.19531278983428       3.69588943706171       0.92178233919211
H        -0.83163232517706       2.85729822142783      -1.53156107823931
H         1.40059213088200      -0.96302199865533       3.40194000906225
H         3.12699110798734      -0.92293108330173       3.79037663698307
H         0.12021158626901      -3.01073060649866      -2.55038356929847
H         1.24815384283787      -2.68110384476954      -1.23307547912203
H         3.59130628134236      -2.57531066191336       1.93446059289355
H         1.85760437592469      -2.61660907064162       1.53959673570231
H         2.42775518153110      -3.24281198975072       3.10486418379744
H        -1.81581759863433      -2.92917779431570      -0.91104440972888
H        -0.66737775675424      -2.61654686551308       0.41157971807522
H        -0.62392813054135      -4.16986057949016      -0.45480879586540
P         5.52876437518061       1.45208199269361      -3.07501878982238
F         6.22743777139600      -0.00336210131959      -2.68784614056254
F         3.99857139520314       0.77125365834846      -2.73147615902685
F         6.96778585773972       2.19296585209156      -3.42311506527995
C         5.82193735954946       1.83574529000823      -1.13260982868746
C         5.50028962999486       0.77871725295347      -4.94057519275593
C         4.47255168186140       3.12398912127161      -3.46363892753334
C         7.28612723435987       1.81186955265899      -0.57484050471909
C         4.40211078320984      -0.24052262284801      -5.36631750327505
C         5.22355897285350       4.44991519883780      -3.76410622940565
F         5.14005399047700       0.87144114034579      -0.38526390964718
F         5.34178193216496       3.05312648987335      -0.67999894682843
F         6.68827261647799       0.11807277310576      -5.15789405143610
F         5.46317234541078       1.79440045494648      -5.86826355857222
F         3.61279933195927       3.42013170992948      -2.41114812149043
F         3.62843277503747       2.91346759090793      -4.53524126031669
F         7.21548589334250       1.91740080026657       0.79252103235485
F         7.98996667433007       2.87244168919658      -1.02446973507007
F         7.96002762628991       0.68384954832219      -0.85544118510250
F         4.64976133763525      -0.67334836883463      -6.63156423560210
F         4.37960518769502      -1.32318087959307      -4.55406723069585
F         3.15558935516527       0.30992334428321      -5.36869016385221
F         4.31845706029709       5.46182767855756      -3.92461466638843
F         5.94704222540731       4.35956051536016      -4.89627435193256
F         6.04171534236498       4.79203218586799      -2.74247522003235
