34
C10H22ClN optimized with ForceField in AMS.
N        -0.09746023436964       0.01773796553251      -0.07040345696613
C        -1.01556047654632       0.49200852962812      -1.15735289153442
C        -0.59698908490517      -1.30052904980299       0.44244555881988
C         1.24825832603349      -0.19486853428933      -0.70828987220754
C        -2.49244834248522       0.58142077236500      -0.73784178641956
C        -2.07146781717750      -1.28209338224701       0.89165077332683
C        -0.02183059678047       1.00312176770361       1.06508698075750
C        -2.98412274532960      -0.76500934928419      -0.21611452641991
C         2.38666283662346      -0.62209781373478       0.25087813564464
C         0.57540955375279       2.37904533388449       0.71714725603504
C         3.68663745496683      -0.84697356076571      -0.51748852059253
H        -0.97116485330385      -0.20453514356081      -2.02756536404876
H        -0.69817421415539       1.47706116499225      -1.55933979147291
H        -0.00156380042999      -1.64104522836393       1.31647811521985
H        -0.49582190757053      -2.08827466456252      -0.33967225209716
H         1.57270810177640       0.72362825882991      -1.24677459389710
H         1.17326843676134      -0.97466302524699      -1.50193344497710
H        -3.09869229796237       0.86064853236213      -1.62618422583490
H        -2.65019183172360       1.37592598790811       0.02061856297536
H        -2.19847681757553      -0.67033800310554       1.80899126252972
H        -2.37841602391937      -2.31825185241417       1.15321112309007
H        -1.02155186516588       1.19782215784268       1.49950454876891
H         0.56248208763236       0.58031036547972       1.91104345193062
H        -4.01832295939840      -0.65548094055049       0.17586477567391
H        -3.00784712278438      -1.50086214226940      -1.05016003452446
H         2.57965558091405       0.16039537013624       1.01268236791571
H         2.13566382507344      -1.57017957221929       0.76731383243158
H         0.60242500238266       2.99684391043250       1.63965554986287
H         1.61726406294929       2.30257892722624       0.34855409709531
H        -0.04938303960783       2.92240838332933      -0.01904856365983
H         4.48980495365574      -1.14138024203763       0.19063216383227
H         3.55881415090883      -1.65907095084197      -1.26502903631365
H         3.99532124743552       0.08532023340795      -1.03690959945778
Cl       -5.02626943427516       3.17138913623597      -2.19299937498630
