46
C14H12F18NP optimized with DFTB in AMS.
N        -0.77171509639925      -0.09456166500878      -0.91458781134449
C         0.46493166070013      -0.35532802638933      -1.66227540726224
C         1.67802164996908      -0.11675272145676      -0.76082465432844
C         2.96917091996485      -0.37659379275218      -1.53277927682267
C        -1.22250539637785       1.16478489353437      -0.81317268010997
C        -1.45573191595921      -1.12251206579300      -0.39095430647223
C        -2.39482830136434       1.43507784629874      -0.14018762696094
C        -2.63830936811945      -0.90372854974737       0.28480832433543
C        -3.12024728424658       0.39065763030309       0.41884734413780
H         0.43524824057874      -1.38848955098042      -2.01239537664343
H         0.47965899059858       0.31022046461555      -2.52785734355983
H         1.61883628750773      -0.78286016406968       0.10558384811749
H         1.66136329655003       0.91513629682796      -0.39646223559109
H         2.99939877957854      -1.40600997360073      -1.89008360640771
H         3.82670746838151      -0.20703221060217      -0.88273551855309
H         3.04219249953777       0.29269216419572      -2.39012823943789
H        -0.64133994630425       1.93632117949336      -1.30251564525836
H        -1.06066121586259      -2.11651970391237      -0.55763009430339
H        -2.75075396868670       2.45578469135733      -0.08559695322360
H        -3.19057654834079      -1.75082569305621       0.67032418872014
H        -4.05848288556366       0.57968820666946       0.92521121369573
P        -2.76098130632134      -1.30496229892388      -4.28679686700906
F        -1.49648623754660      -1.88654455990908      -5.21607381038645
F        -1.73739773769955      -1.40747367883986      -2.90485206515744
F        -3.76997407196186      -1.18085982028881      -5.60403731692044
C        -2.06997044339815       0.50187010436891      -4.65187631995234
C        -3.26637826783256      -3.18413279220779      -4.05468658843943
C        -4.16656505810763      -0.59687477818721      -3.03839275849114
C        -1.03775688583355       0.68316886728512      -5.79580577379256
C        -2.43061684269507      -4.03167160932903      -3.05655534518207
C        -5.61860289905004      -0.29211839378517      -3.49095615328262
F        -1.44396951897234       1.02839724941562      -3.55959038140459
F        -3.10492326861874       1.31025317950560      -4.92363337775106
F        -3.16696449115740      -3.79529172398701      -5.24435283200885
F        -4.54986877680190      -3.29281969415570      -3.66616740737283
F        -3.71528433694504       0.56395668974400      -2.49670718009179
F        -4.25939055592559      -1.45787579138517      -1.99562957338850
F        -0.83835795133687       1.98664915294744      -6.01941456364388
F        -1.42350128675967       0.12846362284393      -6.93254871990281
F         0.13940751768827       0.16283419153776      -5.43461749059732
F        -2.80186600123010      -5.30926545804919      -3.09368175382740
F        -1.12883142886244      -3.97653271476308      -3.32905106796110
F        -2.59448603154111      -3.60655080646447      -1.79395541842829
F        -6.35124216814271       0.05645656358411      -2.42407631497372
F        -6.20132244235595      -1.33809225703747      -4.05973634162542
F        -5.64517009433439       0.72221078525387      -4.34757809233606
