40
C12H26ClN optimized with DFTB in AMS.
N        -1.42441091048239      -0.40755382306849      -0.19035767024501
C        -1.70612842250118       0.95016398115094       0.38754183569442
C        -2.33573605607846      -1.43410210388049       0.42867795997631
C        -0.02220354268512      -0.82813122069894       0.17566021316346
C        -3.17461900319106       1.33998513346124       0.29567230146531
C        -3.80936259136866      -1.06357579171778       0.34343387968936
C        -4.04629289366172       0.29789028395211       0.99157006860716
C        -1.58410529852112      -0.40212931193089      -1.66658334963738
C         1.08814988290364       0.06473383444436      -0.36847567990147
C         2.43326389171260      -0.44257584007203       0.16813177009882
C         3.58990600684314       0.42301994915891      -0.33983420823882
C         4.93323796269047      -0.07749245581243       0.20057090131372
C         6.09000146997248       0.78716466564019      -0.29751643169884
H        -1.08624684940183       1.67264789712555      -0.14641159754105
H        -1.40269639704964       0.90012726048007       1.44004460959827
H        -2.04211084879735      -1.50182985023369       1.48274685050733
H        -2.13882268209056      -2.38399745933731      -0.07394679996402
H         0.01185851695720      -0.83636107090190       1.27163277497134
H         0.10454608300819      -1.84954020524343      -0.19359953807961
H        -3.28296964200952       2.30778480043166       0.79223837379793
H        -3.48558624037056       1.46280768431185      -0.74727611344672
H        -4.16182505120044      -1.06072771326578      -0.69331007684626
H        -4.36564879456401      -1.83487520026929       0.88230295258997
H        -3.77864176590794       0.24827724280227       2.05120995107323
H        -5.09992527907805       0.57469635144511       0.90935192339735
H        -0.96874903104120       0.38672392073422      -2.09352256112639
H        -1.27321268547877      -1.36928354233470      -2.05832963894287
H        -2.62550467794998      -0.22266487027313      -1.92162375913580
H         1.10584385307354       0.04958754198214      -1.46258775710003
H         0.94595142410244       1.09796422675543      -0.04253379973270
H         2.41445854680910      -0.42520867533073       1.26208346541577
H         2.58342874796565      -1.48006284584661      -0.14924522440678
H         3.43290978237266       1.46023852279352      -0.02481503537772
H         3.60596382301029       0.40519340452903      -1.43540855596012
H         5.08963020036373      -1.11398759951369      -0.11722128450479
H         4.91248066098352      -0.06252681220890       1.29514345056951
H         6.14185232208167       0.76675680991132      -1.38718596797838
H         5.96030951184877       1.82142771047773       0.02429689424684
H         7.03345142452076       0.41485181882492       0.10220174241945
Cl       -1.08634557939018      -0.42839074997231       3.22478911286920
