44
C12H24F3NO3S optimized with ADF in AMS.
N         1.72403474606485      -0.04728787674970       0.78760846544179
C         1.91543217714035      -1.55106011475485       0.93486308024399
C         3.05467051177150       0.38523412652487       0.21124507698268
C         0.60346998543035       0.26449655629017      -0.19493852438411
C         2.68566637966743      -1.96727169668161      -0.31799121149030
C         3.42208534059945      -0.69054621280580      -0.80850791023660
C         1.46603437844455       0.62371122786664       2.09724482247500
C        -0.79311207575270       0.02500785283832       0.35975519600117
C        -1.83606088845418      -0.00192407040800      -0.75977030094432
C        -3.24471494477230      -0.25470313632348      -0.22028537093932
C        -4.30499855000876      -0.31446344126495      -1.31829194779968
C        -5.70648316608395      -0.57950918189359      -0.77238583536505
H         0.94051811072933      -2.02774064345108       1.10225562254500
H         2.48535815486839      -1.69208981153804       1.86489181316143
H         3.75641784989032       0.38876553702962       1.05830057088826
H         2.96911584490196       1.40557269176157      -0.18778047286619
H         0.78742140417451      -0.36379890534402      -1.07939778050248
H         0.74244006696529       1.31754916186694      -0.48948081302559
H         2.01354574792820      -2.35502000097610      -1.09783884234141
H         3.38564838512501      -2.77738851583895      -0.06957619943023
H         4.51303374603017      -0.82299264696302      -0.84158915993689
H         3.10087046371133      -0.40511819482027      -1.82127637064737
H         0.55236957215050       0.21216749350954       2.53364354328023
H         2.29592830432117       0.39638128593446       2.77598294502099
H         1.37687576360510       1.70376798160913       1.91510213409991
H        -0.83065336879543      -0.91838859105062       0.92875783127964
H        -1.05482781656877       0.82142696016593       1.07599202723389
H        -1.57800279394779      -0.79636654224378      -1.48502793973640
H        -1.82229064626517       0.95198248209927      -1.32044896643158
H        -3.50944522483096       0.53976174220873       0.50213757001685
H        -3.24786412562623      -1.20057321952173       0.35113452550361
H        -4.30198374689975       0.63535507476429      -1.88415108808201
H        -4.03618004733872      -1.10696305732028      -2.04085832583374
H        -6.01493425358568       0.21306794951851      -0.07171407877501
H        -6.44787046134864      -0.62106090211764      -1.58498938358197
H        -5.74361375221202      -1.53675103790996      -0.22850050860953
S         0.12220465453449      -2.34661874037436       4.00408774578559
O         1.48963483936417      -1.78024703373874       4.03056466403251
O        -0.07828818702200      -3.60471329975186       4.71854551702145
O        -0.53937837228161      -2.23869205685895       2.67680703289042
C        -0.85922010448857      -1.10589658093996       5.01626844402017
F        -0.80699847024835       0.15397591619446       4.45474812205185
F        -0.37650247112086      -0.99850959461426       6.27920621325225
F        -2.16910252816597      -1.45156010712684       5.08935030283108
