45
C13H25BF4N2 optimized with DFTB in AMS.
N         1.47769211113649       2.70542125546142      -0.16583743925979
N        -0.66853554596345       2.57148061860195      -0.31240983659953
C         2.89351629602384       2.48022711472323      -0.43677556675702
C        -1.98220107451635       2.17523376248019      -0.80943248271545
C         3.34581305303639       1.14552025066261       0.17011048992381
C        -2.20181715953775       0.67361757451370      -0.57092138868002
C         2.71362750873158      -0.06049154393837      -0.52895517779138
C        -2.68317851605088       0.38149617395733       0.85310358107744
C         0.47489266464831       2.31227284592219      -0.94979422601294
C         0.96799667032967       3.17901244524179       1.01047643597242
C        -0.38617588367760       3.09523483748449       0.91758405908405
C         2.91924781112338      -1.33692229019091       0.29289027602901
C        -2.53618956154510      -1.10558480976958       1.19047488385690
C         2.24238207548340      -2.53329860506689      -0.37223941921491
C        -2.83251791994566      -1.36291597196591       2.66623285497888
H         3.45096301786480       3.30826407605229       0.00892953385632
H         3.03968973167291       2.49027204907328      -1.52094441193411
H        -2.01464900139858       2.40620848223655      -1.87843603286297
H        -2.73512220641368       2.77570987455269      -0.29288875869718
H         3.07652342182237       1.13539731930167       1.22881205129774
H         4.43563299325854       1.09899245566691       0.09094465816597
H        -2.93351267139110       0.31404134620663      -1.30091545305499
H        -1.25628542592930       0.15426539610883      -0.75111296386693
H         3.13990155379153      -0.17761416495465      -1.53244768166429
H         1.63789183228856       0.10891207674480      -0.63624194940922
H        -3.72762537779812       0.69503216294654       0.95974582578556
H        -2.08367085605829       0.96145703818787       1.55719179762014
H         0.56709809055446       1.90314775481205      -1.94043815950170
H         1.60041491038481       3.50204934204982       1.81775559808169
H        -1.15155272662083       3.33060802916864       1.63468679053239
H         2.48945335417440      -1.18881946876800       1.28784240234430
H         3.99049334268558      -1.53428197543796       0.40845407155791
H        -3.21045780825736      -1.69787224888980       0.56082075053211
H        -1.50918264725229      -1.41701408019056       0.97539729054802
H         2.64629854650369      -2.70153835148884      -1.37255108125314
H         1.16820924914322      -2.36162814911670      -0.45485227901111
H         2.40454835246948      -3.43139729861570       0.22398397582888
H        -3.84108342095898      -1.03318241092978       2.92238587704905
H        -2.11714608893830      -0.82454089882343       3.28813868909581
H        -2.74828559211285      -2.42837125239807       2.88185136805758
B         0.47394119955085       0.58277312774518       2.55472033338152
F         1.67093655760028       1.31238105811459       2.72599591525923
F        -0.59950191068472       1.39035588907870       2.98011793587421
F         0.51248942998139      -0.61175639191092       3.22923955740544
F         0.30893360919133       0.34549226886013       1.15738136529031
