20
C6H8BF4N optimized with ADF in AMS.
N         0.37865129848381       0.28467413764342      -0.19198287560145
C         0.86341719903298       1.29449328251226       0.55720943380396
C         0.95675870358319      -0.93481856123085      -0.17122404817641
C        -0.72651851157126       0.51821033342795      -1.13802739749195
C         1.92692564966341       1.08528153955660       1.41238142829690
C         2.01971452921884      -1.19239245039267       0.67049396497339
C         2.51521639756432      -0.17260767276533       1.47388636207824
H         0.39103342643843       2.26323962194174       0.42123258128938
H         0.55049062570593      -1.66826947894168      -0.86240448447600
H        -1.59363372015431      -0.07589477744399      -0.81959238500986
H        -0.96457233144426       1.58514840276960      -1.14548357981246
H        -0.36261739481517       0.22596692428651      -2.13128924654715
H         2.31115049006019       1.92312294618840       1.99171183353018
H         2.47843833971502      -2.17980582346256       0.65350503333771
H         3.37904046720104      -0.34696921913584       2.11680010945223
B         2.50222604708406       0.98580333428123      -2.40350943959998
F         1.78318609429647      -0.25623153186299      -2.63108630506711
F         3.32779076599530       0.81609383044436      -1.25789153822680
F         1.52302533769944       2.00270838497139      -2.10845193442156
F         3.24094891274257       1.31943789581244      -3.53605658653125
