40
C10H22F6NP optimized with DFTB in AMS.
N        -1.25945241431713      -0.06657888402872       0.04667879019971
C        -2.57350271091497      -0.26245285299574      -0.68664365776880
C        -1.50641262288012       1.01664156943864       1.07074125913078
C        -0.20406327291163       0.37136194387848      -0.93050529766868
C        -3.53960269526471       0.78010734881255      -0.13833524436411
C        -3.01349273362217       1.06463062365559       1.26324826010932
C        -0.87416351663432      -1.32586495004986       0.76368319935462
C         1.16212914509598       0.62835527928743      -0.30307912095160
C        -0.54775797215550      -2.49324888573150      -0.15714421850299
C         2.08532859194865       1.24514174835482      -1.36300205338771
C         3.46299166380014       1.55166335789687      -0.78199590151117
H        -2.93221348950492      -1.27302469748118      -0.48547416427631
H        -2.40381696183173      -0.14643299776582      -1.75617475203894
H        -0.95477261019563       0.79159628210721       1.98322996628246
H        -1.15346720045527       1.95939673100236       0.65247325556505
H        -0.13271722212266      -0.39620585627950      -1.70346722733201
H        -0.57482675738935       1.28832650015168      -1.38721930192373
H        -3.50800227971030       1.68344233643850      -0.75067490468186
H        -4.55983327029240       0.39490181762175      -0.12888649670872
H        -3.34348623101712       0.29919334008191       1.97176901399935
H        -3.32368634713253       2.04396427894374       1.62799405444003
H        -0.00727550951004      -1.09745568482414       1.38782579485106
H        -1.71230544557408      -1.58234339260393       1.41694779778863
H         1.06830056642162       1.31955967963206       0.53904122262581
H         1.60366331057234      -0.30164864159462       0.06934843302105
H        -0.41508232641032      -3.38045026343960       0.46158262730554
H         0.37552878249210      -2.32067434457840      -0.70689049897989
H        -1.34974943755403      -2.68673610349995      -0.86705134718653
H         2.18620715921088       0.54983192497677      -2.20249283303100
H         1.63214360224864       2.16531602319987      -1.74185471355577
H         3.93833540189775       0.64108069137869      -0.41347664665655
H         3.38097447485900       2.25999831582328       0.04334110911247
H         4.09806871392465       1.98846419963184      -1.55214646799959
P        -1.85616378977615       3.36143377945391      -2.62280834213955
F        -3.44891440323137       3.65241061454452      -2.38309121972084
F        -1.48498682370142       4.92867267085136      -2.41654321141142
F        -1.68720424293747       3.10999169051691      -0.95581510208989
F        -0.24882063936179       2.97439112127614      -2.78196045725147
F        -2.21002044841344       1.71793857086325      -2.76887860542857
F        -2.00557266034916       3.53758970155284      -4.22813082481825
