42
C12H16F6N2O4S2 optimized with ADF in AMS.
N         2.25433093929951      -0.23809174751738      -0.43564111885246
C        -0.06414525776507       0.72341376233804      -0.48419103716689
C        -1.17974717875237       1.14236104575310      -1.44179689582402
C         1.00491794052607      -0.06261236435048      -1.23192692279842
C        -2.24755597098207       1.99461402413359      -0.75824381051718
C        -3.30978006993220       2.47846913166427      -1.74159258663318
C         2.72642366798509      -1.47269522898219      -0.15171946587252
C         2.93181937452285       0.86836011131510      -0.05929130146300
C         3.91591783978313      -1.62840606753827       0.53290915191191
C         4.13868357997911       0.76017939062564       0.60774813989217
C         4.63925093071355      -0.49852150859856       0.91577673063351
H        -0.45778377695695       0.12559875989966       0.35713495131438
H         0.38458021323828       1.64001613466177      -0.06760948167713
H        -1.65165147645206       0.24887326825064      -1.89228857972033
H        -0.72778946555083       1.72473106630197      -2.26373803734058
H         0.66068743664427      -1.06907668069644      -1.50829073159653
H         1.30588799213195       0.48709127807900      -2.13637427996922
H        -1.75850511528926       2.86740325656025      -0.28940314672657
H        -2.72032680634549       1.41615297485502       0.05695191682441
H        -2.85242088643236       3.08987687059191      -2.53487824278396
H        -4.06997477753267       3.09250676877710      -1.23648254076514
H        -3.82293758260227       1.62873063356896      -2.22092886194593
H         2.12656230861003      -2.31001754999450      -0.50142005566330
H         2.49739721868213       1.81791665943945      -0.36726410860360
H         4.27531505744334      -2.63423406307329       0.74945570033321
H         4.67544459806047       1.67898995152176       0.84566377348564
H         5.59105152437697      -0.60430091030063       1.43939167803204
N         2.89640088186980       4.77504349836018      -3.07074213133734
S         1.50614313869334       5.33425051620914      -3.73291239118790
S         2.99993208803823       3.32091998556602      -2.47508429045548
C         0.33572451214708       5.61663372547739      -2.24170034841976
C         3.52819982404003       2.15822835149519      -3.87013416149195
O         1.79801630348514       6.67328380535542      -4.21019267961940
O         0.79216516991531       4.37287981391774      -4.56305215693313
O         1.72601390288398       2.71688529477563      -2.02855746153497
O         4.13387325405328       3.22424660058355      -1.55304000534286
F        -0.39513924592013       6.73116564785883      -2.47205787143499
F         1.02030095056110       5.78296759060400      -1.08421515152989
F        -0.52217712848744       4.57935761731805      -2.08488330844664
F         3.64870879879534       0.89011741848444      -3.34565456558475
F         4.72514071348496       2.51331216770158      -4.37841843166770
F         2.62333126383686       2.10446089360738      -4.86448210072054
