41
C11H24BF4N optimized with DFTB in AMS.
N        -0.61536134971888       0.21864847025128       0.51338555735883
C        -1.23020610975725       0.57110869682632       1.84230527213062
C        -1.68995330796088       0.27885444271158      -0.53763454430498
C         0.02393480233068      -1.13390072460204       0.60610614531611
C         0.39298979773014       1.27682487784347       0.14334261120052
C        -2.42624800887475      -0.30241650341168       2.20099519794568
C        -2.87301282446374      -0.62914228552398      -0.23341606913698
C        -3.49380116061352      -0.25522266531034       1.11046835390735
C         0.73477031744719      -1.60622198770018      -0.66160478487412
C         1.60806087639337       1.37761434286430       1.06121305370224
C         1.31484515316047      -3.00067728987498      -0.42502621861810
C         2.34617035243149       2.67922456654830       0.74451438671609
H        -0.45526539916637       0.47081010456085       2.60424799947942
H        -1.53767406564483       1.61751079465655       1.77774139197831
H        -2.02459374909561       1.31898176379834      -0.57430487860171
H        -1.23540045258783       0.02295291483795      -1.49612321526829
H         0.73466663181906      -1.09300653650877       1.43542777520475
H        -0.75629870996802      -1.85108703226801       0.86699859562381
H         0.70905788848870       1.07832444096814      -0.88302474621422
H        -0.14566173335268       2.22566227928311       0.15449263601042
H        -2.11536983477668      -1.33578941683181       2.38685959039252
H        -2.83790715478031       0.09155238288016       3.13393406568492
H        -3.60489331427350      -0.48309580618334      -1.03213584821727
H        -2.57639421013651      -1.68307970450466      -0.24327638578981
H        -4.30476016227634      -0.94576828114572       1.35423544502537
H        -3.90217503000942       0.75691534320394       1.04894175537523
H         0.03525848424622      -1.64793387869399      -1.49993999286425
H         1.54505227269082      -0.92352785378841      -0.92722561884178
H         1.30132356984568       1.39733955541667       2.10952885520780
H         2.28148460396157       0.52667544601710       0.91835687916039
H         1.82271947644550      -3.34390141725164      -1.32554974340980
H         0.52306422149408      -3.70936189200440      -0.18000271791666
H         2.03353589839762      -2.98281024770901       0.39491361931059
H         3.22446115388543       2.77092991758302       1.38266536698767
H         1.68955115222908       3.53096022792024       0.92276712027830
H         2.66640457837246       2.69501864683264      -0.29769799185888
B        -2.10317031920320       3.70519818846414       0.41075619919634
F        -2.64169900005613       4.95406352151035       0.38101052936375
F        -3.06310850242979       2.71908531017413       0.76670442597461
F        -1.04527577128618       3.60360922768015       1.35427332006168
F        -1.57311957853709       3.32007327068020      -0.84668278917647
