37
C9H20F6NP optimized with ForceField in AMS.
N        -0.41041722787735       0.17253187642160      -0.06974827970445
C        -0.98162769986896      -0.88263522800351      -0.96263278219221
C        -1.46895652024794       0.42739568278428       0.95499649259565
C        -2.44485130590721      -1.06799319614345      -0.60852223048338
C        -2.51852589951243      -0.66021414676639       0.83526745471568
C         0.82607897569748      -0.33694771347341       0.60795333244926
C        -0.15146748121147       1.41578234956907      -0.86606278632948
C         2.00782498754484      -0.62842808337980      -0.34837071090960
C         0.45346376732711       2.57837189867192      -0.05745116469504
C         3.14494880980460      -1.33183702609636       0.38697158925858
H        -0.48916336338656      -1.87140960370197      -0.81653285227455
H        -0.88349654663788      -0.64246020426353      -2.04626972902318
H        -1.99129512761132       1.39771530185828       0.78857468342152
H        -1.07499461700946       0.45920516643661       1.99664938824971
H        -2.77849625205931      -2.11919486682772      -0.75160163261286
H        -3.07208674218797      -0.38812624057849      -1.22639475396556
H        -3.53302585851492      -0.29171933148466       1.10263856939006
H        -2.24802049697639      -1.52051280113055       1.48685289049158
H         0.58252751586268      -1.27186857297896       1.16458634026353
H         1.17404879266352       0.38382909703815       1.38073384909843
H         0.52419552755278       1.20309854910851      -1.72315894206554
H        -1.10165477569880       1.77692911039900      -1.32281628442622
H         1.68834286561266      -1.27225152371770      -1.19333700619644
H         2.40932456388052       0.31686684788081      -0.76861351361704
H        -0.14492671253160       2.80380809862375       0.84826490675163
H         1.49864074411536       2.35932989250414       0.24069000209223
H         0.47300516608987       3.49030200730780      -0.69023719366952
H         3.56392860823433      -0.66732850593018       1.17230014414898
H         2.78436157822968      -2.27255548865660       0.85440696542179
H         3.94962394660842      -1.58646060324347      -0.33322822708432
P         7.38366038614077       0.82727366992085      -0.12380096200729
F         7.55383075168989       1.11191276751041      -1.80975197783380
F         6.33102494562560      -0.48186811958714      -0.47940493638340
F         8.68761365701136      -0.29173063898517      -0.11808853583041
F         7.15449290738437       0.58933903058744       1.56243685496751
F         8.51149728661702       2.08780772214489       0.17803220005286
F         6.06430462514672       1.92757103188156      -0.08593471016472
