32
C10H15F3N2O2 optimized with DFTB in AMS.
N        -0.24462045842876      -0.87943359823822       0.72524496035993
N         1.82060778928315      -0.27796020985054       0.84232553543532
C        -1.69808577644774      -0.85526991279742       0.82095177147951
C        -2.31185804114066      -0.37258657782227      -0.49769768573108
C         0.58232310909470       0.06926816050344       1.17698096192762
C         0.49036504612978      -1.83576612648332       0.07293323017261
C         3.01722862172609       0.52677745847599       1.09452523448195
C         1.79227983368324      -1.45472223596750       0.15004805286305
C        -1.92525161978810       1.06784131819227      -0.82306491494738
C         3.29340909686510       1.41664871992639      -0.11025039679687
H        -1.97309419810142      -0.19146833274453       1.64508853297005
H        -2.03819276175965      -1.86888285028185       1.04916675342202
H        -1.98902776451209      -1.03491366652863      -1.30594911633851
H        -3.39859653049062      -0.45212603112558      -0.40679242019982
H         0.29372480829674       0.94257691320472       1.73615791712844
H         0.03094171149361      -2.69875083100707      -0.37570567869157
H         2.84178680075577       1.11401009472039       1.99953443243291
H         3.85297927091484      -0.16116866122467       1.24401576421570
H         2.70085897456991      -1.90415857658354      -0.22924529257675
H        -0.84467557100163       1.15984988243250      -0.93692764548624
H        -2.25207031689759       1.74147607549995      -0.03002704940025
H        -2.39801849064164       1.37260361499295      -1.75578160956071
H         3.49375156502349       0.79437000592305      -0.98108558026179
H         4.17901255939929       2.01516502811014       0.09527734909099
H         2.44671474138192       2.07284977408581      -0.31330085715132
C         5.74155062029916      -1.35351620741775      -0.83004435498063
O         4.55257362739075      -1.35466821559284      -0.47480135473090
O         6.42048202645893      -2.11855232764011      -1.47501177344290
C         6.50059790704802      -0.00405372306856      -0.29765334667356
F         6.09758831717754       0.31472569331519       0.96364656426616
F         6.17348025656039       1.07261086242703      -1.05685481678900
F         7.83495410865752      -0.06650048933546      -0.26832778168695
