28
C10H16ClN optimized with DFTB in AMS.
N         1.64492185624325       0.21285759854050      -0.39791269447199
C        -0.76043405892436      -0.00789575733475       0.17751727769707
C        -2.17152616732605      -0.04428199381674      -0.41428237167159
C         0.28371792813431       0.18125020250448      -0.93010376448041
C        -3.22446941405478      -0.22928276329139       0.68316414391980
C        -4.63667354541732      -0.26087286612211       0.10174414617821
C         2.19762191131543      -0.94667261357549       0.07330813350644
C         2.22749350798368       1.45736393430816      -0.10079740803058
C         3.47209743857590      -0.98526880023355       0.52700350576822
C         3.67446334492328       1.37718460137836       0.13175857853394
C         4.24967279107849       0.21462695619590       0.49405150735355
H        -0.55830858083324      -0.94225985335323       0.71045383456614
H        -0.67863367262818       0.81223129000299       0.89513758007337
H        -2.24619835605034      -0.86551197544183      -1.13617780989488
H        -2.36557476738273       0.89062315118136      -0.95173132856972
H         0.21806293596721      -0.64110382116511      -1.65135648670834
H         0.10405258330751       1.12055691188573      -1.46169162674250
H        -3.14489854472166       0.59199700843237       1.40323807843266
H        -3.03018208626066      -1.16427688648621       1.21957512892962
H        -4.85602940180775       0.67130972918049      -0.42098177519491
H        -5.36716688722259      -0.39105480220580       0.90058544918057
H        -4.74198558263044      -1.08683703509883      -0.60336888061580
H         1.58291936258424      -1.83536323943380      -0.01558574967626
H         1.92799133746922       2.21921276021889      -0.82054546429069
H         3.91057487756507      -1.91566355906060       0.85995957376061
H         4.22636617314368       2.30774832901571       0.09119185428631
H         5.30847912934719       0.16187680480546       0.71981272241777
Cl        1.43286670002158       2.16355728626906       1.51130061794336
