29
C9H13F3N2O2 optimized with ForceField in AMS.
N         1.12244063487292       0.36265218571253      -0.38396745579946
N        -1.10070662839767       0.36245896569336      -0.40167178177376
C         0.01456982471604      -0.23599230273180      -0.86273929895814
C         2.50750949881640      -0.02639009372539      -0.63572885715526
C        -2.48138319749650      -0.03547382408102      -0.66298115962749
C         0.69419675441375       1.37630005204029       0.39540941406587
C        -0.68498795408899       1.37625625623597       0.38434950895784
C         3.10702438910173      -0.68357699287694       0.60232313145582
C        -3.08194827403027      -0.69553150585654       0.57229878417431
H         0.01962296404872      -1.10273810667268      -1.51148624100259
H         2.55293424883974      -0.74564850989499      -1.48256019511411
H         3.10172996261400       0.87082026303005      -0.91305621497792
H        -3.07980448370031       0.85815634238937      -0.94309602660717
H        -2.51780833010533      -0.75517432384982      -1.50983797108520
H         1.33473248318765       2.06079533340482       0.93581830271062
H        -1.33429788008713       2.06019725567690       0.91506478583979
H         3.10132032665369       0.02543031535967       1.45702171391609
H         4.15469243234631      -0.98663670141492       0.39422473719919
H         2.51945337592414      -1.58644215132220       0.87411615574707
H        -2.50760197184275      -1.61053097222771       0.83088615426464
H        -4.13700140147916      -0.97785317879439       0.37222054371268
H        -3.05213957005413       0.00541871059797       1.43257155352752
C        -5.26094041913187      -2.50765304489140       3.90333712400163
O        -4.16324972861956      -2.71270040582117       3.40985543908182
O        -5.82768964119119      -3.40445823723146       4.50681513006637
C        -5.91597897159767      -1.16487232477490       3.77362582449676
F        -7.12180806158632      -1.30159847465675       3.11135943237155
F        -5.10875379080144      -0.29512925084687       3.06327208379861
F        -6.14388409132480      -0.63857528896995       5.03150182261293
