40
C10H19F2N3O4S2 optimized with ForceField in AMS.
N         0.39645313556311      -1.54515394342289       0.31927423706017
N        -1.73525696479190      -0.91830774864344       0.23980581133546
C         1.78075919037585      -1.68189648229742       0.76810507211961
C         2.70984620067564      -0.75630351306856      -0.02780792758085
C        -3.00483223747700      -0.28701350500204       0.59614008541107
C        -0.60897599077538      -0.93744560944292       0.97867800016469
C         2.37129855480070       0.72397763843442       0.20055051164949
C        -0.11320268530427      -1.93347502516385      -0.86716741783983
C        -1.43672882507810      -1.54713620398534      -0.91538045367824
C        -3.29804581152875       0.91526236798244      -0.31018179426554
C         3.33807613749460       1.63444096558283      -0.54952382350970
C        -2.24915479902836       2.01654339136108      -0.16137865816991
H         1.85764217664937      -1.44134188956924       1.85145920030430
H         2.10555698529869      -2.73646146015845       0.63556346450709
H         2.63566035247053      -0.99735078727901      -1.11081033017124
H         3.75653429900229      -0.94773410310047       0.29479116371949
H        -2.98245612296163       0.04730676047326       1.65701072952275
H        -3.82303739400407      -1.03214275732318       0.49611478817246
H        -0.51134071324300      -0.48236304676241       1.95674715792122
H         1.33990111467365       0.93620029271692      -0.15483390341138
H         2.42429256092910       0.95824349442004       1.28610102001420
H         0.44071347948842      -2.44054592039255      -1.64656885796337
H        -2.12256236913355      -1.69405341008984      -1.73962044055565
H        -3.34205912077470       0.58845538877939      -1.37134610220127
H        -4.29277121144142       1.32910272473712      -0.04137198815688
H         3.28600618006354       1.43568556451344      -1.64121414550038
H         4.37761790574689       1.47016025970426      -0.19440269737488
H         3.06426244701408       2.69533583095973      -0.36847589118292
H        -1.25420109429895       1.65544349866767      -0.49715793961578
H        -2.18140232654884       2.34624266500693       0.89708329018137
H        -2.53465594613995       2.88745688726137      -0.78787899479345
N        -4.44744143054780       4.30192242784378       1.14104537359043
S        -3.49180882443102       5.61777183757891       0.96008127020423
S        -5.79968120125095       4.10569050989226       0.24133373998554
F        -4.25745133993748       6.95088326955543       1.62316268110683
F        -5.37306542273387       3.87863174455025      -1.36179437689785
O        -2.18513707486896       5.39090304033032       1.66479381158190
O        -3.24264702621700       5.87558700040667      -0.49929191308839
O        -6.66252260365263       5.33140044231864       0.34573170343265
O        -6.56116365857686       2.90791696912445       0.73223011027254
