44
C12H24F3NO3S optimized with ForceField in AMS.
N        -1.38227415088619       0.19526192604378      -0.08023838521995
C        -1.66569072859756      -0.98314939394743      -0.95682738477315
C        -2.48181246431844       0.19753062146732       0.93223976732264
C        -0.06735936617931       0.01922882040582       0.61957369550117
C        -3.02085255463319      -1.55155886938045      -0.57592173969682
C        -3.19590472528413      -1.13726881712043       0.85823869452055
C        -1.43055484526917       1.44891897866989      -0.89953765792692
C         1.16933015438956       0.02473049876938      -0.31268061158340
C        -1.15324344097519       2.74068951837905      -0.11021256778287
C         2.43408177590641      -0.36199495817522       0.46527366277496
C         3.67282182334027      -0.34228472169698      -0.43808696636570
C         4.92836700407519      -0.72284777516009       0.34284078174120
H        -1.65427745492317      -0.73764100831919      -2.04351221434852
H        -0.92314349214642      -1.79918011799758      -0.81871092950427
H        -2.12417510405705       0.37905868277517       1.97182852732463
H        -3.24444496050245       0.98280380269026       0.72236832418368
H         0.07615634315458       0.81389116624031       1.38510836007796
H        -0.07715615141798      -0.94014302222493       1.18811404279087
H        -3.81471241507525      -1.08752824047915      -1.20243737149766
H        -3.05449149785099      -2.65737447830514      -0.68838746789077
H        -2.69755096206212      -1.87174210965670       1.52906808090612
H        -4.27023683604506      -1.04853822455410       1.13078818743579
H        -2.43324939147710       1.55067928755334      -1.37584373445457
H        -0.70854540137890       1.39718973008789      -1.74370360172051
H         1.31822097567078       1.03943089035663      -0.73775308320518
H         1.03369729289256      -0.68707339551473      -1.15342048924679
H        -1.81162798565528       2.82884587627175       0.77776669746881
H        -0.09386675549459       2.79428515948668       0.21220352973508
H        -1.34588509920331       3.61460584683530      -0.76741583742717
H         2.30758115666094      -1.38275168299138       0.88904546680836
H         2.58088486643562       0.35343747283828       1.30452940158387
H         3.53820726103774      -1.06132740735111      -1.27534319666491
H         3.80998986538704       0.67489370874322      -0.86536122972823
H         5.81035209673668      -0.69395085746973      -0.33116635898649
H         5.09601481799645      -0.00805818737827       1.17660340952160
H         4.83021079837030      -1.74977227857562       0.75493000315936
S        -0.13919855530836      -5.50339565607728      -0.81162839594215
O        -1.50133643721724      -6.16153655421122      -0.54859390799563
O        -0.23427336509033      -4.18465692077663      -0.03237171386461
O        -0.24348145804022      -5.05347894453209      -2.27620673319756
C         1.30517275857054      -6.52389859611318      -0.41191035556565
F         1.25421758977276      -7.69997383505469      -1.13387569769182
F         1.30433212750028      -6.81264866027922       0.93857705577780
F         2.45844385579127      -5.83569024567152      -0.73382462645315
