54
C14H20F18NP optimized with ForceField in AMS.
N         0.01210833561703       0.00641897196491      -0.00053562417212
C        -0.84415192580402      -0.26429487874055       1.20644126375083
C        -0.82724041072786       0.27251548784226      -1.22105963242718
C         0.86431307727694      -1.20628125234354      -0.26163741096966
C         0.85441399479181       1.22249999032541       0.27464845464763
C        -1.89585367578007      -1.37828382563534       1.04326864654509
C        -1.89093065130396       1.37968808284134      -1.07735585777135
C         1.93022001294840      -1.05444947985193      -1.36469252938318
C         1.90408196920068       1.07349398224400       1.39414270746329
H        -0.21410464628685      -0.56703661919361       2.07033770981843
H        -1.37027225648671       0.65864345786976       1.53638655222704
H        -0.18471262559806       0.57871319455909      -2.07435129628605
H        -1.34192905487312      -0.65413157590337      -1.55814995973036
H         1.37756727535406      -1.53808312946984       0.66768534447173
H         0.23193038275354      -2.06595879925769      -0.57083647531566
H         1.38110496657536       1.55652996862090      -0.64623302713693
H         0.21277236920182       2.07909452964771       0.57354400474377
H        -2.46136250584681      -1.46526278489430       1.99056094414990
H        -2.63078551797339      -1.15329182208575       0.24609042972188
H        -1.42686384408382      -2.36478139301121       0.85926084898313
H        -2.45437032716273       1.45714533341913      -2.03112287825487
H        -2.62945860018996       1.15545599153887      -0.28326387497252
H        -1.42881656918830       2.36972432572374      -0.89310859186622
H         2.50239547853853      -2.00336190364730      -1.43825831826429
H         1.46949225244694      -0.87681256118029      -2.35663296197077
H         2.65988831847421      -0.25293441313679      -1.13856508622395
H         2.47055798088618       2.02477738751672       1.47900343198031
H         1.42964082418183       0.89054542690606       2.37867499318597
H         2.64139360589038       0.27627442283584       1.17724576215500
P        -4.64994818209604       0.20708272496674       5.65384668086550
F        -6.22536501730271       0.57333082356491       6.24256234524777
F        -4.49761001208122       0.49584658810609       3.96114228550073
F        -4.44989085562611       0.13501753871792       7.36124969072262
C        -4.64107680551254       2.14451928722214       5.55472955076895
C        -5.76580182267313      -1.30836241141798       5.19972876784772
C        -2.88955401275936      -0.57419134623067       5.82241733974427
C        -4.90076798964239       2.93561695904183       6.86618738146721
C        -5.13255095795304      -2.41609195739095       4.33406114024703
C        -1.74357741941137       0.36500507802153       6.25051353050492
F        -5.62003360597569       2.55343122814991       4.65703543466315
F        -3.43104839212275       2.57459245518242       5.04680222200443
F        -6.87910894477260      -0.86919815694118       4.48866874108558
F        -6.20597123299663      -1.90935560766354       6.37081024894441
F        -2.51581303888654      -1.08886765562516       4.59421624889028
F        -2.92818047502521      -1.63579649247854       6.71680996784998
F        -4.68522198416309       4.28042748751333       6.62129349321650
F        -4.05667063536212       2.55636028102641       7.88755657566636
F        -6.20982319499370       2.79629380332794       7.29130265277474
F        -6.11271307491937      -3.33670616780157       4.00647321055215
F        -4.62829191967037      -1.90448247492140       3.15507789894758
F        -4.14229623576577      -3.09472730974644       5.01537614543569
F        -1.37905201740950       1.19793527758132       5.20951488146555
F        -0.63653667736932      -0.39883172106020       6.57694209213775
F        -2.07355245084147       1.11834915375089       7.35516071695025
