59
C17H21F18N2P optimized with DFTB in AMS.
N        -0.93207098848048      -2.19522922208022       0.56303711537867
N         1.13939963654092      -1.89084045349318       0.06277131687869
C        -2.16798030582474      -2.29063570414348       1.33706481256965
C         2.56286863594415      -1.59703226308773       0.20496408712014
C        -2.87353843396787      -0.93282110967657       1.40341256624292
C         2.85435582508679      -0.14583117091789      -0.18720213515930
C         0.26278312591425      -1.89306186296763       1.06247902201484
C        -0.82043082989687      -2.36797737612785      -0.79002697249237
C         0.48831053580504      -2.17698251783572      -1.10671257885640
C        -2.07382006873032       0.10693769857464       2.19369863032835
C         2.22630725299898       0.85722058659660       0.78498807948153
C        -2.83047745379765       1.42937047571286       2.29009703833151
C         2.50505761272016       2.29498558660204       0.35403119635266
H        -2.80683318673303      -3.02897496792136       0.84654266922640
H        -1.90999591603067      -2.64396725347666       2.33770804723949
H         2.83480707550305      -1.78582411479853       1.24603904215500
H         3.11071659797344      -2.28572589700645      -0.44313745621040
H        -3.84070416483259      -1.09576626522800       1.88745459229299
H        -3.06017355444550      -0.57326246432659       0.38611258355124
H         2.48650448390928       0.03220683922046      -1.20291381347761
H         3.94072093500186      -0.01937008335099      -0.19483677150176
H         0.48954135986576      -1.70949612453173       2.09562025972302
H        -1.66494805591435      -2.61987488686688      -1.40737820200084
H         1.00056585294983      -2.23041557795992      -2.05135359169174
H        -1.87581258360011      -0.27458741674723       3.19884892510288
H        -1.10994073330376       0.27718037025008       1.70254784421156
H         1.14427972637067       0.69418780451383       0.82973159479299
H         2.63140653567709       0.69245944242174       1.78709383246868
H        -3.78505546399466       1.28730613042456       2.79777953475908
H        -3.02105947577225       1.83797490989729       1.29640001091970
H        -2.23985562078079       2.14926204345851       2.85590417044546
H         2.08586249129356       2.48894037616917      -0.63444016608718
H         3.57878687516015       2.48247556410410       0.32035891811672
H         2.05391804360419       2.98554477831033       1.06593029030746
P         0.62303214667580      -2.08222951978015       5.18969669266404
F        -0.21964756930883      -0.76576199581090       5.77799745835064
F        -0.45025082895597      -2.12212531856176       3.83955134947486
F         1.70836937311093      -2.08320492094019       6.45785265530727
C         1.69394161482989      -0.68726357715834       4.27315768997465
C        -0.60457240365093      -3.17473129992232       6.25540849213951
C         1.52504884929465      -3.64279296995800       4.29170019661710
C         2.44647285539373       0.36950284885836       5.12849681936733
C        -2.00674379353743      -3.46817543869152       5.65451613827751
C         2.87508536750619      -4.17524219350126       4.83248943478617
F         0.85606989088192       0.01599242302496       3.47073908500436
F         2.64899086696395      -1.18180294112588       3.44783312971294
F        -0.82732283320651      -2.52894743775725       7.41124422931021
F        -0.04234342505843      -4.35132279564001       6.57836281606846
F         1.74171593071298      -3.34704845593732       2.97711155345944
F         0.66480845298704      -4.67700773614307       4.27046515751911
F         2.94697411306158       1.30170572272051       4.30156406678233
F         3.46652684231173      -0.18102387983922       5.77441861747660
F         1.66779116260493       0.98593308329684       6.00290740460237
F        -2.75069725413160      -4.16516357952714       6.51081824422437
F        -2.65053929625546      -2.33230024201873       5.38379351381603
F        -1.93363049255107      -4.17005615588107       4.52023451521410
F         3.35868540474047      -5.12822968300090       4.03071508573393
F         2.74096156805187      -4.68708712055102       6.04781276832598
F         3.77453348181500      -3.19307479126621       4.88183142885668
