37
C9H17F2N3O4S2 optimized with ADF in AMS.
N         0.91476719161754      -0.44234146109491      -0.57665707835219
N        -0.51904428769546       1.09176404171615      -1.13773218458665
C         1.94072393741761      -1.21850596868826       0.15521789607402
C         3.07957986961301      -0.37451252357265       0.71235658432685
C         2.84162676232235       0.29415377038328       2.06825264752346
C         0.41257855955564       0.75228435802696      -0.23713966357688
C         0.29309622937910      -0.86791507482893      -1.73165265665867
C        -0.60553878781167       0.09508816147180      -2.08452996861173
C        -1.28525864741463       2.35020683983505      -1.13472555325061
C         4.01041956297581       1.20885249842602       2.43126113075949
C        -0.90588816953287       3.26710881517238      -2.28338625721391
H         1.41625410981343      -1.78519487239920       0.94366373504406
H         2.33132257895361      -1.92690686725779      -0.58750445476558
H         3.36763222579515       0.37554626780665      -0.04184204006568
H         3.94830029549186      -1.04875984872173       0.81048810662332
H         1.91520532521456       0.89348003971543       2.06978313596871
H         2.70042115130536      -0.48184457880175       2.84319899689351
H         0.72830605364537       1.36173540793523       0.59537648545493
H         0.58575861547282      -1.78374580807942      -2.22806963421435
H        -2.35007182191734       2.06824560167809      -1.16341646551044
H        -1.08674341130304       2.82765190533356      -0.16504986583004
H        -1.25574092558898       0.17590730344898      -2.94574026145569
H         4.10366645872409       2.02952170290123       1.70296443401863
H         4.95809606952310       0.64702390721202       2.42455895808704
H         3.88219717884927       1.64860910046233       3.43137343298846
H         0.15205202205322       3.55086330860416      -2.22559674553560
H        -1.52706589865365       4.17300706843880      -2.22665678188548
H        -1.08085328615480       2.78803075516393      -3.25698717079063
N         3.54759615711282       1.99974017804081      -1.54240471946083
S         3.19399461139269       3.52267279835541      -1.17942699612905
S         2.95303142004283       1.26679813197029      -2.84140538796020
F         1.76817548484995       3.31137762585687      -0.25917230537983
F         3.96475605365633       1.75593836931997      -4.03624882788079
O         4.13595931228338       3.97322431972613      -0.17814081965322
O         2.74490078960541       4.37813729139081      -2.25904112975175
O         1.63662694171670       1.69507277263724      -3.28832884838382
O         3.22726451778942      -0.15386407348491      -2.69113124155887
