39
C11H19F3N2O3S optimized with ForceField in AMS.
N         1.91175559885342      -0.94394474358359      -0.22963947488399
N         3.13413472330416       0.90905486458585      -0.11571034115051
C        -0.37308583308251      -1.86635595390801      -0.07497364590169
C        -1.03234579527250      -0.50557885516807      -0.33535132545742
C         1.00592854556973      -1.97372211577397      -0.73553473733550
C        -2.44327530231200      -0.45817095763095       0.25917784732713
C        -3.08328443986209       0.91582893905751       0.03522248543116
C         2.36749227040125       0.13043200648391      -0.90319246440388
C         2.40936374419288      -0.84224210324327       1.02001244461800
C        -4.49636564443539       0.96316295534866       0.60698883264959
C         3.16763708482232       0.30845919961833       1.09003741383959
C         3.76533677561830       2.17232105102661      -0.47485321517740
H        -0.26735174204674      -2.02111025693186       1.02004485766318
H        -1.02067419904460      -2.67398645342278      -0.48178469452083
H        -1.08565570629773      -0.32206692008400      -1.43111523723705
H        -0.41846925984284       0.29708543517876       0.12907363372624
H         0.89457168182910      -1.87901746369642      -1.83817528335092
H         1.43742037338252      -2.97634091051969      -0.52591814180076
H        -3.07086381529396      -1.24156878777044      -0.22040263075233
H        -2.39048596300133      -0.66543364573659       1.35121592258152
H        -2.46847017220568       1.70000444340194       0.52905966767776
H        -3.12747683812040       1.13641622008168      -1.05377127698241
H         2.12308703137984       0.35439588584571      -1.93423051922435
H         2.22094846961207      -1.54123693740053       1.82463101984474
H         3.68862181099748       0.68653033399406       1.95996739455946
H        -4.47622864357269       0.76770066093676       1.70043064456626
H        -4.93371014794674       1.96875104992000       0.43295654592747
H        -5.13819959518392       0.20486198699369       0.10975918821216
H         4.86510717907004       2.08905964409302      -0.34938708031706
H         3.54193337798464       2.43305009690983      -1.53162912487657
H         3.38114748173705       2.98081931003920       0.18209944961497
S        -2.18331825702345      -5.85522990886938       3.71792298837959
O        -3.67550655336726      -5.49357230544024       3.69517609263315
O        -2.12081816395702      -7.12086055718497       2.85063402306192
O        -1.97593798233549      -6.39534298147890       5.14018928584042
C        -1.06044503178700      -4.52227514448610       3.21607684491035
F        -1.21125769670010      -3.44357527065115       4.06654841516681
F        -1.36514277207972      -4.13889774236636       1.92571698206763
F         0.24534770151636      -4.97136792666824       3.26772136687355
