53
C15H29F6N2P optimized with DFTB in AMS.
N         3.19522012104424       0.60017445283853       0.26885022629030
N         2.91219612353030      -1.52687124495549       0.13489986851474
C         1.83835240093298       2.64451820774451       0.30889808163691
C         3.12431502078983       1.96168744817133       0.78447598313794
C         1.08744357322277      -3.00675421092674       0.87054261817950
C         2.57321650266992      -2.89237573967745       0.53098869434914
C         0.58217242163919       1.93543190290523       0.82368933742955
C         0.18934915790891      -2.53640450751541      -0.27743527404672
C        -0.69467557483924       2.64139429700614       0.35863881996800
C        -1.28296341600414      -2.52195273775272       0.14464077347432
C         2.67094710921617      -0.45548460286926       0.88319998711289
C         3.78040974649726       0.19735520927675      -0.90127612558688
C         3.60496755944960      -1.14897426879785      -0.98226990026782
C        -1.93872940927556       1.89584357017170       0.85233758640068
C        -2.17979649534289      -2.01981421710126      -0.99118581831016
C        -3.22294316774715       2.56621926770054       0.36868898924406
C        -3.64388891283820      -1.95789156812944      -0.55948701371644
H         1.85636813428761       3.67486649282604       0.67489465927548
H         1.82748421291675       2.67373248315833      -0.78552460032362
H         0.88009410044796      -2.42097861663890       1.76957318699048
H         0.87941902626014      -4.05485144794954       1.10213507859730
H         4.00150223376333       2.50480661361619       0.42519440555565
H         3.15690074734879       1.89971726923962       1.87566436383535
H         3.18039738295786      -3.13261047180099       1.40967317363844
H         2.84690134377583      -3.55297641568884      -0.29526939149739
H         0.60659751691308       1.89990738366162       1.91747105982129
H         0.57063232910064       0.90369687389060       0.45505808024801
H         0.32186038681631      -3.19343195802295      -1.14409197774624
H         0.48407354711837      -1.52476964208008      -0.57953250521855
H        -0.70563623256515       3.66833243530384       0.73850211307141
H        -0.70598465598549       2.68925114275925      -0.73596581904461
H        -1.40044129642958      -1.86952712988306       1.01654829485636
H        -1.59022050285264      -3.53091508071129       0.43840845474700
H         2.17208021237982      -0.44599812312196       1.83538688561348
H         4.27357258494673       0.88713370768092      -1.56341142235950
H         3.91581273542865      -1.85698933539792      -1.73037920556953
H        -1.90920021287163       0.86309249209667       0.48800320983905
H        -1.93251755681750       1.86316668822458       1.94665397522850
H        -2.08105777938613      -2.68512475350160      -1.85568824750709
H        -1.84978671321587      -1.02120418841065      -1.29912444510015
H        -3.28011874677579       3.59219289909535       0.73456960882436
H        -3.25814129846584       2.58381362431388      -0.72162420143971
H        -4.09049521892097       2.01738807828399       0.73542618643659
H        -4.26209412328359      -1.60065266281725      -1.38333388701451
H        -3.76394650162626      -1.27809070110216       0.28523729683816
H        -3.99694302644317      -2.94615659491640      -0.26223785417324
P         3.58144512475880      -1.07388326452431       4.11028424295846
F         3.87702350234421      -2.58508885024935       4.63631946506427
F         2.84408245397800      -0.66872405363744       5.49854862306261
F         5.01957475801659      -0.53917285132954       4.64193961438595
F         3.24388881846037       0.45429860941585       3.48658280557652
F         4.27149762458630      -1.46078046223809       2.62686157593287
F         2.10528191307946      -1.59063773543351       3.47901943638657
