41
C13H21F3N2O2 optimized with ADF in AMS.
N        -1.01143494818112       1.16215096957218      -0.37730073778906
N        -2.36261872385214      -0.52716337234187      -0.34342375727200
C         1.33576964321737       1.91894165082376      -0.10241795960215
C         1.92502949376111       0.52142414343003      -0.27021796392097
C         0.02398015438171       2.09467289327472      -0.85842130808093
C         3.30699624601182       0.38394966317512       0.36314658694234
C         3.91448250525624      -0.99911708348224       0.13601999919167
C        -1.50734446795917       0.15992978638227      -1.11802276269119
C        -1.55701629059338       1.11682658308358       0.88898435434363
C        -2.41306162818692       0.05240497873110       0.90960760408944
C        -3.14629196072845      -1.68394610478185      -0.80843154027583
C         5.32285363159912      -1.12771158789467       0.70965932826785
C        -4.14159500559371      -1.27514327784445      -1.88118594883436
H         2.03450912235139       2.67220964764393      -0.50970959991940
H         1.20242903491110       2.16802884527906       0.96719227021839
H         1.98909529457104       0.27177580200715      -1.34421564264907
H         1.24435984989754      -0.22665611156336       0.17841925371218
H        -0.37973437058341       3.11514292718567      -0.76308284809372
H         0.16820702435343       1.84873106161201      -1.92214367738175
H         3.25183403228356       0.59653868624966       1.44897993018519
H         3.98061728417837       1.14896765980077      -0.06876104651848
H         3.92036516192489      -1.21056567672618      -0.94780411890137
H         3.25522036528752      -1.76175500698377       0.58940564387869
H        -1.12660888594217      -0.07724082803130      -2.15046985361227
H        -1.29414992048866       1.82869959046353       1.66109582337725
H        -3.03850534731999      -0.33964260847930       1.70238354585732
H        -2.43502272327320      -2.43260621697724      -1.18646632684676
H        -3.64783097894215      -2.09641202640485       0.07821221597167
H         5.32863668278704      -0.95307591600433       1.79874423329787
H         6.00381130554440      -0.39171167656286       0.25104378232605
H         5.73894651738806      -2.12967727480070       0.52666053661103
H        -4.81282774154391      -0.48528087409738      -1.51186336497508
H        -4.74587796556926      -2.14526591028041      -2.17509196205701
H        -3.61576819047244      -0.91290888382176      -2.77570901896149
C         0.72915190262948      -1.23689593945248      -3.23880950594168
O         0.06122376823766      -0.15678681779955      -3.30492961764174
O         1.94402766248901      -1.43884269001586      -3.12860824745448
C        -0.14236689501833      -2.54446994985504      -3.22794405999246
F         0.34078977529285      -3.52230513281933      -4.03195762169909
F        -1.46116308038353      -2.35329570285737      -3.58826445742970
F        -0.19047986702276      -3.06074943063640      -1.94001579012854
