23
C7H10BF4N optimized with ADF in AMS.
N         0.64345685523802       0.00762439602859      -0.23361546604854
C         2.06235030487941       0.44350716820102      -0.33170478443661
C        -0.35950566221827       0.85741396715030      -0.55067440073928
C         0.39235602730204      -1.27637931403054       0.09403972337237
C         2.71126399236239       0.53906665765676       1.03790545531535
C        -1.67143949506087       0.43192845224978      -0.53332061046204
C        -0.91026186271833      -1.74880007039662       0.12781955560054
C        -1.95348562888197      -0.89310505075752      -0.19174669876645
H         2.55904670239341      -0.31510920740121      -0.95866064199497
H         2.05659124098704       1.41081454134392      -0.85324534558045
H        -0.06551615039480       1.86923913489812      -0.82249606832273
H         1.25541770702350      -1.91088282872262       0.28980808542822
H         2.18283040262942       1.25014155274174       1.69060038235201
H         3.74909541191368       0.87949871990497       0.91124452308843
H         2.74676221415328      -0.44675672403788       1.52379883262718
H        -2.46168357050234       1.13300646959496      -0.80288768807839
H        -1.06376247873878      -2.80364199106261       0.35556500132169
H        -2.98437883164625      -1.25166571082602      -0.19362664219378
B         1.97035939456446      -3.06964672124274      -1.72508004180941
F         2.56420627543809      -3.82315316296070      -2.72838210881129
F         1.17010525231007      -3.86769110682583      -0.84974095830316
F         1.13390174128700      -2.03141488590613      -2.27509222838468
F         2.97145429257980      -2.40527180769974      -0.90940263807400
