45
C11H20F6N2O4S2 optimized with DFTB in AMS.
N         0.37349826595165      -0.11797860528098       0.08511310853806
C        -0.34745211040430      -0.79275083534718      -1.04034492389659
C        -0.72303900229682       0.12101560766939       1.07349958584707
C        -1.70646726761538      -0.09556899661256      -1.12916303739877
C        -1.90270193085443       0.59229860910229       0.23175161448736
C         1.43996213335550      -1.00075729464642       0.68414322145517
C         0.96532120080768       1.17823236807683      -0.42058841175104
C         2.32722479472767      -1.70221647881730      -0.34322077228193
C         1.25843351203752       2.20807697102759       0.65920817421209
C         3.38510934546452      -2.52787393043415       0.38840537487796
H        -0.46767764774878      -1.84516769961743      -0.77534203689358
H         0.24211923058782      -0.71100331342269      -1.95279516327966
H        -0.40078366191973       0.83120540370278       1.83205842125465
H        -0.94924413353583      -0.83517673693243       1.55114932617174
H        -2.48925266558468      -0.83122056227032      -1.32135361558091
H        -1.72194446197776       0.63450359279088      -1.94018394660162
H        -1.89279571428694       1.67853511445762       0.12281607272266
H        -2.84437929642280       0.30433124632785       0.70080017701942
H         0.92901650096049      -1.74820220591339       1.29696441276725
H         2.04912669792113      -0.36745014678438       1.33153536372077
H         1.88739009249541       0.91184883557735      -0.93750350881708
H         0.26527966078008       1.59433625675102      -1.14763188194843
H         1.72793193636430      -2.36245705874906      -0.97672701280675
H         2.82073905241882      -0.96846524615790      -0.98238011780267
H         0.35263857239967       2.71646750216857       0.98872071597785
H         1.76234639421732       1.76506782983560       1.51504436770806
H         1.93334480124130       2.94535310355593       0.22603209932454
H         4.01096257392515      -1.88299804911348       1.00474408227340
H         2.91624424663923      -3.28263269311850       1.02077317059713
H         4.02240210953789      -3.02429600670502      -0.34173693729708
N         5.74105868315841      -0.42924416638070       0.54109986735362
S         7.28593332115076      -0.72476791962108       0.13986660487253
S         5.11842861290700       0.91785348879481      -0.01238414990296
C         8.33759999236033       0.37940735800593       1.23595575141532
C         4.88141070498408       0.76220541840104      -1.87941203223767
O         7.56552276797817      -2.06184430729435       0.58875037171675
O         7.61579857290872      -0.36038604810099      -1.21519063824358
O         5.87745738988372       2.12980336067748       0.16578970465986
O         3.73415942050965       0.92610180844202       0.45277364471850
F         9.42726978456390      -0.28255150944304       1.59419451691006
F         7.66367164789024       0.70711442720070       2.32919600362191
F         8.69502080059784       1.47691313483887       0.59935394721538
F         3.68803202567472       1.29887156106625      -2.18835194985837
F         4.83254170542789      -0.51638906872186      -2.23645804668949
F         5.80350405811887       1.38345273641445      -2.57578275625094
