37
C9H17F2N3O4S2 optimized with ADF in AMS.
N        -0.72799222574623      -0.88993919207449      -0.28203674261656
N        -2.66528704518301      -0.04314371159116       0.22171164113598
C         0.71913924217277      -1.16060489330078      -0.32985196002405
C         1.46212385784069      -0.22593036230677      -1.27952779397770
C         1.75729234633177       1.14311571890337      -0.67010340081140
C        -1.35213941247687       0.00812658623441       0.49373068338974
C        -1.66233299164007      -1.50559513908232      -1.08522460143509
C        -2.87779076831757      -0.97892476785226      -0.76590357286933
C        -3.72365764213105       0.70707573160629       0.93077392053275
C         2.37466084710357       2.09560615875985      -1.68980852678318
C        -3.65101717037177       2.20601323837603       0.71245482772498
H         1.10086577134850      -1.08011455024634       0.70045890348893
H         0.81099252704417      -2.21264978342559      -0.63724590883888
H         0.86278484506556      -0.10467582314242      -2.19740328581352
H         2.40727554301790      -0.72145782558441      -1.56304683107718
H         0.82094777956282       1.59700235088216      -0.30607078269216
H         2.43308547794158       1.01442696388550       0.19658902453949
H        -0.87735292203859       0.66365941672553       1.21096770189174
H        -1.37844444400292      -2.22379183275024      -1.84365797282779
H        -4.67142752884335       0.30053720910586       0.55123011947873
H        -3.64327798015875       0.43568434776390       1.99563768695214
H        -3.85769550509855      -1.14479892662380      -1.19347420118293
H         1.65920917749900       2.29972354739679      -2.50040152573005
H         3.28727490726624       1.66602250974632      -2.13451509687039
H         2.63919281244470       3.05616954916045      -1.22518969621724
H        -2.69920837465578       2.62694832628051       1.06618690235222
H        -4.47038394303023       2.67678606801848       1.27604235665725
H        -3.75685397395642       2.45190607562886      -0.35393328245293
N        -3.18728850575685       2.42163723609409      -2.57653889877008
S        -1.62554215026111       2.11353816627933      -2.51730964981065
S        -4.14862824980100       1.72531935661410      -3.67288579545852
F        -0.99029278286961       3.10641888695046      -3.66678149459400
F        -4.61191911703411       0.33737423474404      -2.82246160106748
O        -1.11837279970797       2.66054007494986      -1.26530383429143
O        -1.18894035174650       0.78488680954917      -2.92689747262508
O        -3.50956282236468       1.20260845105069      -4.86177760755425
O        -5.37632357004625       2.48763031047455      -3.73076796565206
