30
C6H14F2N2O4S2 optimized with ADF in AMS.
N         0.71346551780372       0.12243144675347      -0.45877638525691
C        -0.25350843827256       0.83950426045205      -1.38992603078114
C        -0.17047435717129      -0.21877743170421       0.72066670309152
C        -1.54164073731533       0.02726592339921      -1.29179712928815
C        -1.50375427655247      -0.64977704524758       0.10678086830937
C         1.86389738408947       0.98684164291448      -0.05052848992223
C         1.22772397938541      -1.12844413842960      -1.10879403001314
H         0.20856305965426       0.91783526902443      -2.38365223521455
H        -0.36778793838054       1.85460823197886      -0.98499247958197
H        -0.27375480333437       0.71018219579886       1.30084171897669
H         0.32759991094709      -0.97724196426225       1.34020528252968
H        -1.59678675352081      -0.72564259033922      -2.09149882738794
H        -2.41113381419542       0.68863371373605      -1.41067095289353
H        -2.33515421959857      -0.32897838994370       0.75023318705703
H        -1.56646682507513      -1.74423479460717       0.01976970766626
H         2.51630697243642       1.14831239552307      -0.91554618819653
H         1.47172762966140       1.94553114415276       0.31052414323250
H         2.41680921302105       0.46939622282405       0.74481676771112
H         0.38148594371010      -1.78848811003138      -1.32895086276897
H         1.74614814136465      -0.86297868220416      -2.03911429308727
H         1.91873039333404      -1.62003058959814      -0.41246036062724
N         2.08194907681269       1.50493800472013      -3.43160543112327
S         2.28770449222838       3.05180435932783      -3.01649227167568
S         3.31247075305087       0.58648569719488      -3.91986952523796
F         2.49968102298771       3.82588646206170      -4.44211909800746
F         4.17174345952678       0.37665795100718      -2.49054203206234
O         0.99681084590889       3.51371095804442      -2.52980241001857
O         3.48932755024383       3.33319824752782      -2.25293445014632
O         4.26595419249905       1.18936895480466      -4.82246158663948
O         2.76325513935068      -0.73944726197848      -4.15470822444351
