38
C10H20F3NO3S optimized with ForceField in AMS.
N        -0.44180204716366       0.15944239490911      -0.05992307446062
C        -1.02880704133571      -0.88077749422351      -0.96046962164702
C        -1.50173574254135       0.43474264481756       0.95760186932829
C        -2.49496016644983      -1.04727792847226      -0.60735206191638
C        -2.56508083302534      -0.63923310509224       0.83692236405550
C         0.77862244297740      -0.37890932278963       0.62506057577867
C        -0.15102767033995       1.40018045287152      -0.85005141589891
C         1.96112353950563      -0.68268549679782      -0.32496383910621
C         0.48748903286452       2.54015067099194      -0.03523249180500
C         3.09537458710582      -1.38557248395512       0.41527901657975
H        -0.55139177713719      -1.87797330681772      -0.82171033218319
H        -0.92684351016499      -0.63514000590594      -2.04226026201879
H        -2.00940210702249       1.41162987505827       0.78283962069939
H        -1.11311571502161       0.46839007710571       2.00108812755429
H        -2.84078099235155      -2.09434235854513      -0.75196680530450
H        -3.11316770233499      -0.35977564128965      -1.22611635875668
H        -3.57463804141097      -0.25741505385457       1.10443402988938
H        -2.30562841469501      -1.50304068372214       1.48840581178742
H         0.51519308671712      -1.31372250103068       1.17287532891700
H         1.13367905997936       0.33108895695778       1.40495397805129
H         0.51600018564792       1.17521700968043      -1.71092241442621
H        -1.09172569241418       1.78933697243457      -1.30333875508597
H         1.64224546924220      -1.32599321246086      -1.17043134910675
H         2.36359775485337       0.25946726219476      -0.74495726122848
H        -0.08654056583879       2.75571782145309       0.88865299704473
H         1.53609378913302       2.30070840313906       0.23503980107637
H         0.50584872084306       3.46302018803768      -0.65240208039486
H         3.47642315634536      -0.74229250503445       1.23676882652456
H         2.74311125900442      -2.35078006835472       0.83684367739352
H         3.92802669122047      -1.59047344602082      -0.29028130266251
S         5.41822596341959       1.34403955412510      -1.51695188894336
O         6.16768856571110       0.02686801884895      -1.26681195120489
O         4.67284256932372       1.58036959158731      -0.19501351128336
O         4.29876472185754       0.93263777124551      -2.48482464917738
C         6.44835273152793       2.72752556000284      -2.07458673919509
F         7.03828408837581       2.40502422231529      -3.28186523507748
F         7.42900751811298       2.97886637323019      -1.13399975975733
F         5.66077070027927       3.85216063546061      -2.23169064933918
