41
C13H24N2O2 optimized with ADF in AMS.
N        -1.45007904003172      -1.31270213284971      -0.04773119285253
N         0.07384808765378       0.23408556009433      -0.03192378831172
C        -2.40962158417175      -2.30537253552092       0.43321264193566
C         1.09755647091423       1.17222930983122       0.44860602838295
C        -3.75132967008016      -1.67795826551901       0.80738973345314
C         2.30922262509343       1.26052504469529      -0.49125439665610
C        -0.47334062317649      -0.75409648292458       0.68623180072284
C        -1.52097614406373      -0.64610744994416      -1.25628878561404
C        -0.56836565709973       0.33772680349756      -1.24905977031143
C        -3.66315623596769      -0.58523176294918       1.88797290380291
C         2.30870516424232       2.51918184878860      -1.36104299609587
C        -3.53468076569714       0.83975749128873       1.34484492948935
C         3.46220393735017       2.52633728509219      -2.35844859223027
H        -2.52629230264897      -3.06559616603280      -0.35540005053321
H        -1.95635501759482      -2.79627837948754       1.30807059063959
H         0.55107660061316       2.13660172551191       0.50050534256855
H         1.37901316838828       0.83379220853127       1.45589510453073
H        -4.39257102108067      -2.50997558379878       1.14679734889722
H        -4.22765306461591      -1.26613077779813      -0.09954813283372
H         2.34086823154597       0.35948803869722      -1.13091490822230
H         3.23048449343772       1.23513323867642       0.11684316884116
H        -0.19159218172994      -1.04739485889852       1.68924037600465
H        -2.26635246163146      -0.89706338612791      -2.00071333329868
H        -0.44878534598367       1.24342343472378      -1.90498352548437
H        -4.56984508346379      -0.64673190141360       2.51389904638776
H        -2.82064882663263      -0.81169284899460       2.56960428406824
H         1.34372372769286       2.61344900295882      -1.88855825225197
H         2.37606711614702       3.40131593826534      -0.69834596967714
H        -4.41414633354281       1.09261039374613       0.72986165260541
H        -2.64273636762333       1.01663117298588       0.72623823364836
H        -3.49330470555055       1.56859214986252       2.16848010165015
H         3.36889190774001       1.68760050081613      -3.06815675243419
H         4.43797977774252       2.42981501046068      -1.85236572230551
H         3.47459290157904       3.45786047863355      -2.94290621179055
C        -2.45401110310819       4.42206512759658      -1.56937242374977
C        -1.42216941700475       3.31330890221118      -1.33763702239441
O        -1.22270484161523       2.94245763728793      -0.14341861456392
O        -0.87620815741680       2.83202384434508      -2.38712157682819
H        -3.42699564286940       3.95511994701778      -1.79463115163959
H        -2.57254113987557       5.04691202265578      -0.67353317483542
H        -2.17461211786360       5.03617544648753      -2.43667696641376
