40
C12H25NO2 optimized with ADF in AMS.
N         0.47490995658500      -0.00198070090391      -0.44936140602123
C        -0.95353493761206       0.22679717526218      -0.88261199058817
C         0.48406562953623      -0.72697540792963       0.89758650190266
C         1.12712154807405      -0.90038234023612      -1.48410646776914
C        -1.76473251177522       0.99504749412849       0.14776113900197
C        -0.37307397419908      -0.04075418860972       1.94838230190840
C         1.25179794477494       1.30358172345221      -0.32263901585086
C        -1.79693982793500       0.23519729497567       1.47454525882404
C         2.57742459526980      -1.29699286651820      -1.18077024893484
C         1.20495158395508       2.20060543690099      -1.54116860582301
C         3.52437057348436      -0.92844229368227      -2.32304619170515
H        -1.38589118961018      -0.77655859228056      -1.03128718088229
H        -0.92238322423540       0.73187984295997      -1.85835439613541
H         1.54266922872973      -0.72677309376352       1.22607464936303
H         0.12572681084559      -1.74643965585812       0.67403269112835
H         1.05233680124262      -0.35798635481299      -2.43870958871904
H         0.46960520847315      -1.78028475586071      -1.55717673346713
H        -2.77956876986659       1.13252442163558      -0.26224752324379
H        -1.34169063451928       2.00236501398837       0.29538763457815
H         0.15286146537841       0.87589601448693       2.27082893028260
H        -0.37109415179088      -0.70367884774015       2.83017850867653
H         0.89778787934798       1.80720207441293       0.58536340951147
H         2.27233747599997       0.99760474366352      -0.04357190867552
H        -2.35019025353419       0.81131470700566       2.23374181730441
H        -2.34561920027834      -0.71523034272048       1.32887889698731
H         2.92948113341694      -0.82268274836518      -0.24800493663545
H         2.61710173899878      -2.38321495151242      -0.99699474470223
H         1.85897842414731       3.06072945511568      -1.32774642799868
H         1.59331754262759       1.72257099581648      -2.45257759564436
H         0.20326426427233       2.60245981834708      -1.75514943416854
H         4.54716396338682      -1.26944276141681      -2.10452839791105
H         3.21214175284632      -1.38477320879759      -3.27665114230773
H         3.56494613001921       0.16344788226477      -2.46265918690217
C         4.22511672467507       1.24311699197496       3.49844992776060
C         3.11424535326740       1.03251046406536       2.46076702341875
O         2.09503702334055       1.77572168206836       2.53839663201944
O         3.33280238549740       0.10781137761099       1.60166099164116
H         3.92952885583573       1.98640931985730       4.25123966366408
H         4.46149023243673       0.28608666620888       3.98813369692665
H         5.14342919059116       1.57933781720602       2.99247111268620
