22
C4H12BF4N optimized with DFTB in AMS.
N         0.45634998279368       0.24994216752481      -0.13891303083769
C         0.42346687769198      -1.12394987086208       0.43486527719214
C         1.13279818941916       1.17121831419144       0.81598293909350
C        -0.93229716394732       0.71921410032252      -0.37668738045999
C         1.20027701177888       0.23245565779222      -1.42862987958614
H         1.44852157595889      -1.45595556853202       0.59716745397836
H        -0.11681260055217      -1.09728535637364       1.37919107351394
H        -0.07923072678639      -1.78609254667932      -0.26758342742933
H         1.15007693490254       2.17130813963296       0.38688438838592
H         0.57911831118909       1.17347639392988       1.75299339620966
H         2.14912305290008       0.81480036453230       0.98042723156468
H        -0.90106256256822       1.72393557149026      -0.79475239215423
H        -1.42155079892162       0.04242342807089      -1.07510380352200
H        -1.47102811490264       0.72828148668593       0.56929461305285
H         1.21545091243679       1.24019654061432      -1.83802481042201
H         2.21655363683758      -0.11460474538588      -1.24217871141991
H         0.69397996165457      -0.44338254521282      -2.11572204951673
B         3.89920131487380      -0.90972516316350       0.46979183451128
F         3.12466969088768      -0.86874343053247       1.65983047188243
F         3.20544570925075      -1.75564510952479      -0.43627468059924
F         5.17108541989492      -1.32846834463617       0.69608052550480
F         3.85491648240799       0.39815926071514      -0.08707928894229
