40
C12H25NO2 optimized with ADF in AMS.
N         0.09818868754200       0.17915757172572       0.27022534382842
C        -0.60894556579973       1.15850469616300      -0.68008354131331
C         0.30444714540585       0.97341058405783       1.55794164074462
C         1.43393770092210      -0.22422104550610      -0.32425495752627
C        -1.06379789359861       2.34762781997271       0.17591679933449
C        -0.89979600308110       1.89098097329840       1.63163777350791
C        -0.79635015796532      -1.00596057688741       0.56174752220053
C         2.29444261940961      -1.05368343690597       0.60856290348436
C        -0.97865968304943      -1.96873287771656      -0.59565458395178
C         3.57430849511034      -1.51802604917655      -0.10147092959611
C         4.43796515244035      -0.36580265086746      -0.61658280112219
H        -1.43316520173516       0.61725543304480      -1.16205865246401
H         0.13719763090786       1.48349319603252      -1.41568313737595
H         0.39725477636410       0.26555498298855       2.39245321128142
H         1.25985011945900       1.53981930272200       1.42774309302187
H         1.21410951440758      -0.75412006114881      -1.26500530139144
H         1.90454740435338       0.75110694315882      -0.55545776922141
H        -0.37063697888999       3.17811227091640      -0.02608490050523
H        -2.09252368744989       2.65696260641697      -0.06073497012101
H        -1.79953825944497       1.36855917333824       2.00106794299656
H        -0.69999380417981       2.73440470568414       2.30924983670369
H        -0.35507418935141      -1.52502447600498       1.42459388708763
H        -1.76036890684502      -0.58200283996344       0.87996554749931
H         2.57949380071271      -0.42780719001412       1.47177273730515
H         1.75425209615703      -1.94303273007993       0.98247648321719
H        -1.74771428803989      -2.70462134737664      -0.31441159115291
H        -0.05348525496536      -2.51835163888370      -0.81901551431800
H        -1.31809388207249      -1.46642169190025      -1.51333537090109
H         4.15417566780283      -2.12334035328229       0.61669916041089
H         3.30736648178548      -2.19635634208790      -0.93391943857976
H         4.60775985029502       0.37842493027665       0.17734499259194
H         3.95802846778818       0.16400309707089      -1.45368164170925
H         5.41000849430759      -0.74205282114774      -0.97104388863966
C         3.73912149503143       4.16775026475732      -0.09733751365860
C         2.80705938357340       2.96661495001194       0.09812295601259
O         1.95648004823910       2.73233432583558      -0.82058171730003
O         2.95143024663020       2.30618539361769       1.17225711313978
H         3.71831104553050       4.52853773692612      -1.13457243546676
H         3.41686071136556       4.98461436861090       0.56870034113921
H         4.76559435972700       3.90152785642266       0.19561537860720
