38
C10H20F3NO3S optimized with ForceField in AMS.
C         2.70113658666635       0.36270360454266       1.56486982542959
C         1.64468442586669       1.30172848402224       0.99823620927316
H         1.42299696602282      -0.78855426979502      -0.91238812903606
H         0.43228427463655      -1.66854356617482       0.29376178391435
H         3.19662790193458      -1.41175584356874       0.39852757837009
H         2.14602589781495      -1.71206666550677       1.84214989822387
H         2.64801872475305       0.35113096144280       2.67567737042298
H         3.72159595556147       0.67868302077062       1.25490534734575
H         1.35474879828479       2.07401018715803       1.74790395278196
H         2.10659074178188       1.84137555959295       0.13770146671073
H        -1.20232834789605      -0.48756686350443       1.48045594903730
C        -0.42989551927600       0.27850180626527       1.70665839905232
H         0.11637001808783      -0.07808570320361       2.60794719650576
H        -0.94496070023159       1.22837418818467       1.97195651722608
C        -0.19178107336540       1.17481048035812      -0.58347471623577
H        -0.32973212036212       2.24930725847055      -0.32037981200296
H         0.45653758738666       1.17571350340059      -1.48927037679962
H        -2.31045472489296       0.73927857108642      -0.13744492871310
H        -2.96226309301255      -2.08737220418469      -2.63847937042770
C        -1.62184492616155      -0.75937725282402      -1.56678244921991
H        -0.80110330282125      -0.88735528670504      -2.30506614034358
H        -1.50186323489146      -1.50248077941297      -0.75468255652493
C        -2.95530975538708      -1.04557797496036      -2.25443049025776
H        -3.10727974703727      -0.35214743225466      -3.10885259121296
N         0.49091106842067       0.48015253283182       0.55654265225118
C         1.11152829947010      -0.80465293721476       0.15686239127224
C         2.35998725924693      -1.00637221498360       1.00897918243191
H        -3.79321151908145      -0.92741257163064      -1.53409381916559
C        -1.59787320842637       0.66050714272691      -0.98494634884665
H        -1.97452847936022       1.35888869769081      -1.76513363290629
S        -0.67144837255810      -6.29380174222716       1.94782078189713
O        -2.05387613333466      -6.64097745115329       1.37592294622326
O         0.28554582770159      -7.10744072573241       1.06410880507518
O        -0.64402756283307      -7.04945256334987       3.28452402767157
C        -0.30517187423348      -4.52080462318037       2.04774693467454
F        -1.21690406664156      -3.90560180631097       2.88429974311147
F        -0.39394083071408      -3.97025918006173       0.78490271693193
F         0.97194606968135      -4.33895035280452       2.54356466965853
