37
C13H21NO2 optimized with ADF in AMS.
N         2.03914384910360       0.01606677749937      -1.11161548545188
C        -1.77245804685696      -0.12923896455142      -0.72653679551000
C        -0.30796001398337      -0.00036562701458      -0.32028995221803
C        -2.72548184796557      -0.02431536015965       0.46124883094574
C         0.63673813384210      -0.10554707514611      -1.51330300745785
C        -4.19679476788156      -0.15451950832470       0.07476686417819
C        -5.13393924702472      -0.04853045625304       1.27452865533721
C         2.79729574353784      -1.09727944476351      -0.89439010416275
C         2.59162141034188       1.31920279151702      -1.00376411748376
C         4.03100291552736      -1.02688733762462      -0.31682274349370
C         3.77271664509939       1.37415526003789      -0.12845365152581
C         4.48566902871522       0.24833560003038       0.13483021221699
H        -1.93036575243965      -1.09867296428214      -1.23684310971674
H        -2.01535661572653       0.65835665144992      -1.46386764551287
H        -0.14806316762239       0.97444144845605       0.17477704574248
H        -0.04412529159600      -0.77911690232306       0.41819438771214
H        -2.47332418005264      -0.80636479707349       1.20244877750268
H        -2.56718636356501       0.94615242969241       0.96861879206977
H         0.41698519553967       0.68961411308383      -2.24242991234485
H         0.51359252922420      -1.07553498270356      -2.02267105209617
H        -4.44956757101967       0.62912415831315      -0.66249038898311
H        -4.35527197490647      -1.12352523411439      -0.43338223759606
H        -5.01518190992435       0.92328167132377       1.78069787468694
H        -6.18742802964200      -0.14613938868607       0.97129797372275
H        -4.91862297024477      -0.83845271135773       2.01199225536592
H         2.32901262109694      -2.04208067536587      -1.17276501430004
H         1.81070925664554       2.05405265165174      -0.77846428444403
H         4.60625756925482      -1.93404606810580      -0.14323280357225
H         4.06808467240031       2.34852283306942       0.26191101651680
H         5.39429108856509       0.30766719031661       0.73768974651821
C         2.79742899075563       2.97339071764258      -4.44521069983784
C         2.22254769470847       2.56383065266826      -3.11372831389208
O         3.07510206911630       1.76937376609676      -2.43778076499165
O         1.10868909895788       2.90048437598219      -2.72827270972575
H         3.84174020203964       3.29518933610923      -4.33837485790353
H         2.79095515641898       2.10048310874395      -5.11517689970191
H         2.18390970706083       3.77095804376524      -4.88070050099317
