48
C14H25F3N2O3S optimized with ForceField in AMS.
N         1.36099752726296       2.26505205909672       0.03776872189036
N        -0.84372856933847       2.41397917757678      -0.21878171844904
C         2.74203158440588       1.86323321000516      -0.22243908943162
C        -2.17346258404688       2.21947006922127      -0.79438395400923
C         3.02488522964732       0.46672233146459       0.35174882216033
C        -2.41260341373930       0.74068455885839      -1.13666935271727
C         2.10164670969685      -0.60060543110489      -0.25731337588509
C        -2.36684955484598      -0.15147213357002       0.11323224669360
C         0.33581805655608       2.20007046826423      -0.83366415860458
C         0.81331295877319       2.53804375359692       1.23960556867824
C        -0.55359652910797       2.63355159827184       1.07918602868905
C         2.46091471519843      -2.00326113342724       0.24150027764849
C        -2.57067079056018      -1.62655952095616      -0.24683652403823
C         1.49428869542781      -3.04447093187874      -0.31654964237315
C        -2.49648171714078      -2.50813754940987       0.99732485032198
H         3.43347959318369       2.60253376966061       0.23611856107369
H         2.93627970404473       1.85649170670401      -1.31778491985564
H        -2.26397777990916       2.83147527856817      -1.71750783298494
H        -2.95382961304495       2.56654028283460      -0.08176269104651
H         2.89449796425874       0.48828769186169       1.45587635159788
H         4.08399368287559       0.20630761508760       0.13633316935145
H        -3.40998192529406       0.64556974314737      -1.61834900739948
H        -1.64702703403193       0.40287318578972      -1.86903860003677
H         2.18336367724439      -0.57277717953126      -1.36621560462742
H         1.04914723377137      -0.38262484946014       0.02460079922619
H        -3.15990954676237       0.17007168054107       0.82348582571345
H        -1.38108846292422      -0.04314929798266       0.61415493663313
H         0.43754102062317       1.91534494901272      -1.87365564114698
H         1.35838737473213       2.59393915435867       2.17286225862373
H        -1.28576253438418       2.77213230637269       1.86422476229650
H         2.41550870481363      -2.03061208454534       1.35211094800326
H         3.49400319132423      -2.26114352992961      -0.07780467278581
H        -3.56321646328982      -1.76354063601363      -0.72835756081848
H        -1.78343306980637      -1.94907647360412      -0.96280420218096
H         1.52432503983196      -3.04477016323593      -1.42706709396560
H         0.45916520944436      -2.82687528504810       0.01971223306712
H         1.77976857119998      -4.05303790259965       0.04880963894865
H        -3.31904520183838      -2.25300470525047       1.69887544614485
H        -1.52238756034576      -2.37037594821194       1.51351592329937
H        -2.59430083563826      -3.57470239775883       0.70509113735898
S         1.19054115229528       6.89435763880833       3.56642143946327
O         0.29903628038105       7.37174029683313       4.72258408598604
O         2.06204744791382       5.81380638528053       4.22386412048318
O         2.16881732238810       8.06319786427377       3.37664942184681
C         0.30268114117974       6.37156289072740       2.07059382690672
F        -0.34752497970701       7.45629339604649       1.51402233942052
F        -0.62561881585632       5.40463379372863       2.40261397192716
F         1.19962913953787       5.85456036842548       1.15489226690277
