36
C10H19BF4N2 optimized with ADF in AMS.
N         0.55148252433693      -1.67928370220581       0.42905018781947
N        -1.53919976797665      -1.08838356176966       0.32173691763059
C         1.97277682654982      -1.71414758716719       0.83099435405906
C         2.78562292178081      -0.64372308146803       0.11318246661523
C        -2.77965410934464      -0.33734015140363       0.53167409210873
C        -0.38714162635610      -0.90279698191018       0.98661854622028
C         2.37236796259749       0.79600891032180       0.39933457691459
C        -0.00216376224194      -2.37532439669229      -0.62619823107870
C        -1.31499867781364      -2.00017500034730      -0.69149710448673
C        -2.95681808479334       0.75530495804075      -0.52047659226117
C         3.26263107918165       1.79194563014749      -0.34199657187240
C        -1.85081637438925       1.80394063993440      -0.48620007316182
H         1.99307403615853      -1.58925195317045       1.92566909851411
H         2.34496568945686      -2.71520495466460       0.55635238568512
H         2.75531857616100      -0.86309416093281      -0.96663065230810
H         3.83473691282474      -0.79993346880804       0.42092951898830
H        -2.73068381878744       0.09257325990376       1.54369032587838
H        -3.61225620011669      -1.05672950800754       0.50896242741276
H        -0.24032421150079      -0.22923474050232       1.82023122104439
H         1.32635294169624       0.95865147312642       0.08284570826089
H         2.41144978303078       0.99601714332898       1.48791452871778
H         0.55764554913527      -3.09293964193299      -1.23963356771046
H        -2.10462894253567      -2.32313231890375      -1.35944745009745
H        -3.00650484517049       0.28753321186018      -1.51920674084286
H        -3.93997568431913       1.22399365223579      -0.34302447231437
H         3.20677121166879       1.62110324184817      -1.42861746577113
H         4.31594125875661       1.67346126162714      -0.04213000748063
H         2.96383604364769       2.83108122390112      -0.14021735481566
H        -0.86769179790128       1.35525085129631      -0.69271012425132
H        -1.80487582432148       2.30342355545135       0.49527277238422
H        -2.02624555044558       2.57662107557863      -1.24834814916623
B         2.63163179875939      -4.01073969662513      -2.07080509833588
F         3.51948884380248      -4.77771658844689      -2.81777580451756
F         1.26232041432714      -4.33794684383447      -2.39184660011927
F         2.80408274226553      -2.61082493666285      -2.31514221050305
F         2.80279407237633      -4.24274737254636      -0.65877345725910
