39
C9H20F2N2O4S2 optimized with ADF in AMS.
N        -1.07032016140446      -0.14115973129122      -0.11879021008908
C        -1.76177976123409      -0.93071662407991      -1.21995646646816
C        -2.22316512830495       0.14214225683536       0.83039358171346
C        -3.12068857586880      -0.25389621363411      -1.40866712861660
C        -3.40825291179359       0.47967707171646      -0.07118971610161
C        -0.00241243392343      -0.95536256015288       0.57530668373268
C        -0.52518636009531       1.14458964187394      -0.70692407369285
C         1.13295631756633      -1.39793841057152      -0.33080267095458
C         0.26864606496652       2.00458663546005       0.25692740536957
C         2.15801886702750      -2.19319337073787       0.47848650222484
H        -1.86834147261854      -1.95676762634218      -0.84557996520181
H        -1.12129729442882      -0.93737572979208      -2.11076694805379
H        -1.92905949710338       0.92924760132525       1.53627858619306
H        -2.39573025556727      -0.79673392547602       1.37794044023647
H        -3.87470356926336      -1.02423749915992      -1.62116018233600
H        -3.10591737477614       0.44972564096912      -2.25452499054109
H        -3.50826094275822       1.56532256425477      -0.22207966265678
H        -4.33034499650105       0.11289351442686       0.39954852720874
H        -0.52250530511581      -1.82466828098021       1.00010996928600
H         0.36439171709260      -0.34545703529520       1.41457056369970
H         0.09460513542854       0.85089265979929      -1.56545523167110
H        -1.39561367525817       1.69187279085492      -1.09386856606726
H         0.73230200271040      -2.04030178816367      -1.13229130688903
H         1.62596192702512      -0.53113806192761      -0.80552768999597
H        -0.30381127433301       2.27305132174551       1.15595896510893
H         1.20894042723996       1.52732303586540       0.56430071890185
H         0.52652399994164       2.94213174703913      -0.25787952933483
H         2.60520644004514      -1.57205466111751       1.27080821889772
H         1.67923290297368      -3.06454700062015       0.94827240849099
H         2.96852272279817      -2.54867987120709      -0.17276800951337
N        -2.49082896802694      -3.26512335301314       1.40357367870340
S        -1.49711381214043      -4.47524511305119       1.02651010733251
S        -4.00438094741214      -3.23879010871311       0.83914154678397
F        -1.05377619328100      -4.07686208699304      -0.55559089034096
F        -4.72096226846167      -4.51613920032163       1.56062330942299
O        -0.26263964317806      -4.25293656238819       1.75920806136819
O        -2.08301326122488      -5.78998915587378       0.89924819375872
O        -4.13332955874745      -3.48864597081282      -0.58736471006916
O        -4.63959875769461      -2.06836944874997       1.42201662186027
