29
C7H16BF4N optimized with ForceField in AMS.
N         0.15623817020880       0.28805862940720      -0.07405566317513
C        -0.44918781687789      -1.01461469505285      -0.46475254429207
C        -0.94049587000109       1.06330255590515       0.58188948029809
C        -1.95510430437765      -0.85440988348954      -0.43067329117381
C        -2.18228951140370       0.18599895681208       0.63371987618074
C         1.27999218069764       0.09994474690183       0.89388345704055
C         0.62348359344018       1.02096973237946      -1.27946726885774
C         2.47220854048879      -0.70248781077806       0.34514599069617
H        -0.18881085442615      -1.82209973956826       0.25775809626045
H        -0.12172119676346      -1.36321623595856      -1.47082294611593
H        -1.19809811468273       1.99426158589470       0.02424792713009
H        -0.68618192136033       1.39656212380368       1.61422856096229
H        -2.46657459708699      -1.81028607842439      -0.18281306652790
H        -2.31825530331693      -0.47799824327832      -1.41224560104118
H        -3.10959318659181       0.76784131773549       0.44152098108804
H        -2.25251879383993      -0.30705207329411       1.62902132315619
H         1.66208339292091       1.08960621509528       1.23083986500257
H         0.91050612306902      -0.42256536466013       1.80692648510659
H         1.35282958436418       0.42350859068282      -1.86674189049342
H        -0.22587232415078       1.24479092080440      -1.96405946135070
H         1.10540695051497       1.98307584072170      -0.99538697102230
H         3.18008216695251      -0.91351725437077       1.17431810217317
H         2.15085535022562      -1.67254639200519      -0.08547869932352
H         3.02458194379241      -0.12062912146229      -0.42083109246767
B         3.41622186964887       3.93235133888199       1.80079978864863
F         4.47918638481167       4.74800587026205       2.27240004998378
F         3.02238065512134       4.36834070588409       0.50774754929877
F         2.31309866524165       4.03134688907967       2.69000433233889
F         3.85125833358088       2.58221835489088       1.73333050067634
