22
C4H12BF4N optimized with ADF in AMS.
N        -0.18512664713771      -0.19818364127250       0.13598863716926
C        -0.83425511201754      -1.55550291794872       0.10425291878821
C         0.33815897104742       0.08263406497707       1.51886167663066
C        -1.19243640321499       0.85182428575259      -0.24802363310190
C         0.94935316288122      -0.17219295705914      -0.83481272622215
H        -0.07443627331541      -2.29962712532595       0.37568318236994
H        -1.66651033609223      -1.56412743190892       0.82144719842181
H        -1.19553802953397      -1.73230419881507      -0.91694862475860
H         0.82326034531082       1.06713220704114       1.50195486681302
H        -0.50563116515176       0.07249392340435       2.22240166538935
H         1.06679309008573      -0.69895773791405       1.76893124399019
H        -0.69207066250236       1.82822314542895      -0.21515226400542
H        -1.53654163027192       0.63230513649126      -1.26695666123189
H        -2.02758492399371       0.81485148254212       0.46502019681177
H         1.41582616065156       0.82082932081071      -0.80741426748321
H         1.67840099403498      -0.94019848354513      -0.54689116050018
H         0.55947350033368      -0.37900909956705      -1.83937697284278
B        -3.11231013075310      -0.27191207012677       2.65280388119781
F        -2.11445885609674      -1.25760045793082       2.97538995812942
F        -4.16516151821698      -0.29326298705197       3.55718915914352
F        -3.55997353924401      -0.54141032355256       1.31093438164359
F        -2.45587490280299       1.00953902327044       2.63265489754759
