53
C15H17F18N2P optimized with ForceField in AMS.
N         0.94567188827811       0.29630247098854       0.37235909769946
N        -1.09295912035783       0.25669266981580      -0.51684431285463
C         2.20662530483202      -0.14817192371622       0.96437958604036
C        -2.34551528518671      -0.23665788134049      -1.08697663956813
C        -0.06055260733523      -0.48415573483896      -0.06840440431575
C         3.39448729809899       0.18572927074014       0.05439939585810
C        -3.53820981549057       0.11378653480538      -0.18963317496007
C         0.53512182854710       1.56938168697830       0.19991094415900
C        -0.72886205078596       1.54454550648357      -0.35293630255680
C         3.35050225981585      -0.60192086703446      -1.25355828983601
C        -3.46291236291727      -0.59558222469986       1.16128044830950
H         2.17825048790607      -1.24458518151358       1.15122395292578
H         2.34387008228725       0.35375331597342       1.94651653809952
H        -2.29654267471689      -1.33940679647473      -1.22574980057019
H        -2.49319678027285       0.21944733851134      -2.08905723733541
H        -0.04307567581116      -1.56724803022687      -0.05992104980835
H         3.40832420507413       1.27441206784283      -0.16856504370964
H         4.33597199968319      -0.06462832120099       0.58923325417735
H        -3.58303517913986       1.21271632855974      -0.02955975858318
H        -4.47470201203619      -0.19344214112179      -0.70281434874293
H         1.10814007536615       2.44945713460645       0.46194028983311
H        -1.33680088501166       2.40103541718901      -0.61417301731009
H         2.44695267797431      -0.33226426120121      -1.84001949747330
H         3.34250799911780      -1.69349501499281      -1.04707798584206
H         4.24914196318840      -0.36316694611815      -1.86036278821458
H        -2.56367079844505      -0.26719833567804       1.72411808921435
H        -3.42397594781729      -1.69651444924390       1.01791455898361
H        -4.36353625482166      -0.34774609209038       1.76132352360996
P        -1.90173439862024       3.99939857217068      -4.33660551370801
F        -1.36850565146131       3.87138106757894      -5.97133482976087
F        -1.88708413735397       2.39694155079778      -3.70380834259520
F        -1.73053273882512       5.55948499573655      -5.04210901655821
C        -0.03009405198535       3.65788701986137      -4.00223120197863
C        -3.44177786737934       3.29087942095319      -5.27404861856957
C        -2.72245785862272       4.99558180328216      -2.91609259858808
C         0.94753722242400       4.79026337847396      -4.38550445882873
C        -4.65866949143617       2.84190731777208      -4.42182191542322
C        -1.84934689973645       6.00013455149515      -2.14455404621101
F         0.36407683054581       2.53707208526719      -4.72423738392863
F         0.16550797867613       3.35858310126980      -2.66541374391616
F        -3.06060332404103       2.17926938466252      -6.01954586968718
F        -3.89730869481777       4.25492641230901      -6.16010196548886
F        -3.23075499920248       4.09626578407816      -1.99568604388034
F        -3.77535474515923       5.72699137686608      -3.43744013709465
F         2.24071924780469       4.36470329542007      -4.13792466928071
F         0.73149919221172       5.92715498491686      -3.64053894497194
F         0.85158598979652       5.10681008249892      -5.72785825645055
F        -5.53357073447024       2.14396775344391      -5.23602076061987
F        -4.29361879422980       2.00524146785950      -3.38451980345521
F        -5.35388417846110       3.91889262289949      -3.91207995797504
F        -0.75957318566090       5.38875853420484      -1.56276967208352
F        -2.60707578709602       6.55388750015688      -1.12772464334424
F        -1.43825368842282       7.03397099772282      -2.96538902443054
