44
C12H24F3NO3S optimized with ForceField in AMS.
N        -0.83806679537743      -0.21168894841423       0.02812758301050
C        -1.17276008251750      -1.26096409105043      -0.98382269764806
C        -1.97192944990433      -0.23781979074323       1.00268935624451
C         0.43455996912592      -0.56440833475127       0.73841391568433
C        -2.59722772813572      -1.72244205440863      -0.73969923237647
C        -2.80724411885444      -1.47277952246888       0.72675765387489
C        -0.76709685853608       1.12549043520361      -0.64590905720006
C         1.69971162161179      -0.53625794431867      -0.15282372043672
C        -0.40106564762224       2.29855588761602       0.29406647988687
C         2.91429611478590      -1.07236365999497       0.61445748341857
C        -0.51046772242099       3.63458528274193      -0.43556561765369
C         4.17720974647810      -1.02660144100349      -0.24138076890187
H        -1.06773268299453      -0.90846175709398      -2.03546467784327
H        -0.52198047048865      -2.16054859640144      -0.89002742762995
H        -1.63981600810660      -0.23711992918026       2.06615192397940
H        -2.64782743948598       0.64045507089521       0.88585265082332
H         0.33954273870534      -1.58175743735629       1.18521463708321
H         0.60213843896149       0.11879062734428       1.59980685457508
H        -3.30353032489935      -1.10152813701243      -1.33447043738806
H        -2.73604451869692      -2.79573826713907      -0.99553992110833
H        -2.41916925101708      -2.33221701078275       1.31727431995950
H        -3.88125912490583      -1.30923080743029       0.96442419925023
H        -0.03151604116096       1.10413000038771      -1.48023750287131
H        -1.74813700142857       1.35131399392337      -1.12576169791632
H         1.55003542954360      -1.15004355176099      -1.06584763537087
H         1.92136754711550       0.50513095326233      -0.46634316620058
H        -1.07123296925962       2.32449838423629       1.17830741847818
H         0.64317710799405       2.19505730504434       0.65352219893222
H         3.07819473439686      -0.46069673543299       1.52852786966532
H         2.72853289313294      -2.12431079282872       0.92263125056853
H         0.19370276211434       3.66158608154787      -1.29436277200220
H        -1.54643989147152       3.79085918122136      -0.80413552739689
H        -0.25483438094358       4.46262505706029       0.25825828407357
H         5.03670122891904      -1.41489385413464       0.34472558753612
H         4.05219473243703      -1.65622842379322      -1.14794075395171
H         4.39972792767694       0.01793069256614      -0.54702553033697
S         2.07820113939422       2.59191502525725       4.49880751698367
O         2.08459560647012       2.31085658626632       6.00864226289081
O         1.87966317206012       1.19814889370812       3.88546875882095
O         3.55222313780602       2.89892016421493       4.19628270175485
C         0.89739045745703       3.85705916872561       3.95279552188610
F         1.13450510658662       5.03555242400579       4.63341924085758
F        -0.39103807034313       3.42919582067855       4.20899051249316
F         1.04928149509811       4.07405115139352       2.59818319450186
