64
C18H26F18NP optimized with ForceField in AMS.
N        -1.62557171261274      -0.29274798183103      -0.17963880559061
C        -1.90274153758535       1.12309237593806       0.21303491687266
C        -2.63866358851017      -1.20966528214619       0.43463194858057
C        -0.28869468740551      -0.71662160014127       0.35578804467362
C        -3.34710060985033       1.56954309959983      -0.07382211711649
C        -4.10263392099959      -0.80226123179013       0.18174522665233
C        -4.34718698857229       0.64140332038158       0.60528414967580
C        -1.63751805320692      -0.44457476753636      -1.66035586567258
C         0.93424911530697       0.06035499557280      -0.19187169262150
C         2.23294063171986      -0.46462599511682       0.43559607258657
C         3.45736248698131       0.26519360232329      -0.13052443448215
C         4.75222589817433      -0.27338548300860       0.48852088626079
C         5.97456948021588       0.43980235332359      -0.08143151647779
H        -1.23330977691170       1.82409414125485      -0.33032179230042
H        -1.71020506974136       1.26563014530379       1.30136043143261
H        -2.50183350140187      -1.24963124215422       1.54066726507486
H        -2.49902280370112      -2.25025031340479       0.06166087866692
H        -0.27731275545164      -0.61837268949386       1.46637593019187
H        -0.12347918495577      -1.79797972153670       0.13923881313594
H        -3.49245243618273       2.60037211708796       0.31432542140504
H        -3.53681301610294       1.60035990776782      -1.16793204671104
H        -4.38104397291329      -0.94276464979198      -0.88310366530220
H        -4.76811995199369      -1.46592593795617       0.77470158511257
H        -4.24879306916662       0.72898883356632       1.70966652594913
H        -5.38054869186997       0.94013510405004       0.32583405780789
H        -1.00580986446309       0.32381731993848      -2.15432705287834
H        -1.27159087816492      -1.45093290704197      -1.96266524635700
H        -2.65026191480017      -0.32040307606064      -2.08968105849959
H         1.01071808700166      -0.06515212618523      -1.29145154559355
H         0.84772388659687       1.14048875143501       0.04556488290681
H         2.19527029987069      -0.31839755776266       1.53774974985001
H         2.32894528079725      -1.55324423666443       0.22743541907408
H         3.37025633419012       1.35288786060995       0.08572747046991
H         3.49243224529020       0.12527464550277      -1.23360092671721
H         4.84352842703793      -1.36209748810301       0.28133208790645
H         4.73067326906270      -0.12523809544776       1.59031372686399
H         6.04581234516898       0.26902800770753      -1.17690075407786
H         5.91439810776302       1.53082875281298       0.11807811213830
H         6.89151595278388       0.04276708748442       0.40069111532907
P        12.49993372934838      -0.15037215762304      -0.09427766108824
F        12.85559487627201       0.74138412725793      -1.52356760943668
F        12.91969364435521      -1.81440838154244      -0.25760687567502
F        12.28235462062189       1.48161618423725       0.40731906613403
C        14.43714891364341      -0.10129722279225      -0.02264476808946
C        11.04487727739089      -0.49865966448821      -1.32329893934546
C        11.66724374077467      -0.37404286101239       1.63579356228193
C        15.12225712792204       1.29213232448765      -0.00352963160022
C        10.00133505363989      -1.55340479009283      -0.89910713225087
C        12.53608801400291      -0.09210015311045       2.87840188323919
F        14.94738574473374      -0.76715637093011      -1.13062379531249
F        14.87358772035732      -0.79070009579169       1.09103225893638
F        11.55449330197952      -0.94445228458533      -2.53986056553673
F        10.35772957242786       0.68600262234439      -1.54824131353216
F        11.24957025997993      -1.68769308289149       1.75807826664412
F        10.53603115568812       0.42695850118261       1.71885832485124
F        16.47704377968175       1.11461594781078       0.21556184517858
F        14.63957617440258       2.10438048078624       1.00016845781449
F        14.97914150797127       1.94399913037512      -1.21537681999101
F         9.13649837117478      -1.77019849962284      -1.95816077053795
F        10.59731182604784      -2.76108131352301      -0.58723089273897
F         9.24290865006627      -1.11721745832124       0.16779043747453
F        13.44530098820597      -1.11307511230029       3.08267064205941
F        11.71796725260075      -0.03803028218021       3.99357173530803
F        13.19993299531309       1.11091982523863       2.78734269909385
