61
C17H24F18NP optimized with ForceField in AMS.
N        -0.22211626490799       0.30693598588178      -0.18458633309981
C        -0.91621064963316       1.28326698585270       0.71852524035871
C        -1.11918536036295       0.00777736264372      -1.34850347665184
C         0.12480351854640      -0.93507758538381       0.59205335491565
C         1.00523142082007       0.96640763654071      -0.75041321181618
C        -2.32392524929267       0.83717761573886       1.16448097952718
C        -2.51425660323510      -0.50204553583455      -0.95047109823716
C        -3.20689658629285       0.50091494662380      -0.03339310720748
C         0.92450546245302      -2.01098132842577      -0.18215123025285
C         2.12476427800244       1.29601041343950       0.26713729014774
C         1.24420718818757      -3.20063906241606       0.72044777176626
C         3.28319403782710       2.01609627019361      -0.41937676908027
H        -0.32749399463240       1.45872446882441       1.64447693584062
H        -1.02417566704628       2.27183002535345       0.21513370277383
H        -1.27555644068217       0.92961557188697      -1.95712532642571
H        -0.65596978256628      -0.72108451676268      -2.04557327932782
H         0.69490788604512      -0.66601202157443       1.50840899814461
H        -0.78808456531749      -1.43022492098743       0.97609847231231
H         1.44662496693432       0.33792156980959      -1.55491373083386
H         0.72321977164794       1.91921161523984      -1.25670225077228
H        -2.26655584663760      -0.03106674078441       1.85333345890302
H        -2.79827447750380       1.66429322589818       1.73622809301153
H        -3.12678343206102      -0.62714992495574      -1.86962161178640
H        -2.45653120599891      -1.49873608466846      -0.46679714132214
H        -4.16974874742093       0.07547205883506       0.32266745714877
H        -3.43075207336002       1.43112891952463      -0.60103262173473
H         0.33887017078862      -2.39380065166040      -1.04182339472864
H         1.88696436071765      -1.60690985406261      -0.55445564238129
H         1.74855301125118       1.95656561902537       1.07351750204877
H         2.53065979296086       0.37008976411651       0.72304531084163
H         1.81240700199257      -3.96252690064756       0.14614545153293
H         0.30700310975860      -3.66575503295838       1.09411497159751
H         1.86204306892030      -2.87522188526781       1.58442244446843
H         4.08123046202430       2.23001975263638       0.32252679513909
H         2.93669742042137       2.97805381936392      -0.85390327600258
H         3.70930354679909       1.38208540487293      -1.22599946929238
P         0.58773645188286       1.12094902084483      -7.50483817436983
F         2.01671696297663       1.35749943587028      -8.43572640858700
F        -0.21863036915959       2.61184175432761      -7.19102414953478
F         1.03312628956109      -0.48144610768357      -7.94444677947944
C        -0.16706897154984       1.55790670541795      -9.23777935026766
C         1.95802636892838       1.70647248359590      -6.26746733405178
C        -0.57995553658497       0.06808825842306      -6.38034071807744
C         0.19860694893965       0.63627597709867     -10.43303659807320
C         1.52305527282872       1.97393679388237      -4.81075472988994
C        -1.77646651546617      -0.62384603004109      -7.06089565047967
F         0.23869881241812       2.83802349935931      -9.59556863775027
F        -1.54433490636179       1.58966026634200      -9.14964745994074
F         2.51629022508164       2.89944273246365      -6.71851403893320
F         2.96060331195310       0.74759022586234      -6.22195454466322
F        -1.12535017649325       0.89290701388613      -5.41329135839659
F         0.15564654874136      -0.90837743377085      -5.72249694908030
F        -0.53806296107127       1.02856164016868     -11.53674132238268
F        -0.09533831032607      -0.68707564446692     -10.18494736588832
F         1.53679331673615       0.74291457047617     -10.76676240793846
F         2.58498082137842       2.53853189540526      -4.12551708459407
F         0.46528073144951       2.86146420295397      -4.75149200185202
F         1.19062648315478       0.80374292226001      -4.15957426013982
F        -2.73735146141988       0.30044324053072      -7.42316060889559
F        -2.36053842750185      -1.49440409570272      -6.15766935619198
F        -1.39444221104264      -1.35715500961557      -8.16211301306713
