26
C8H12BF4N optimized with ADF in AMS.
N        -0.78480244266625       0.20817799756973      -0.31169823363552
C         0.58827652373212       0.42216246306190      -0.82437091196196
C         1.63225561365939       0.18594890974719       0.25974362770528
C         3.03618525362449       0.42261320549173      -0.29177373754384
C        -1.35688254715994       1.18143470360319       0.42624875363245
C        -1.46058553753911      -0.91467530664589      -0.62517322907917
C        -2.63366176580336       1.02162407936301       0.92740051034129
C        -2.74095654071365      -1.11874738524830      -0.15194282203720
C        -3.33696404093268      -0.14121264784351       0.63776750848541
H         0.71547977105672      -0.25311017892972      -1.67990923352285
H         0.59980475436130       1.44679181336070      -1.22504190472943
H         1.53834232842612      -0.84545599382628       0.64446234787829
H         1.44399094624852       0.86340885843593       1.11148523705484
H         3.25398771555586      -0.25935633817412      -1.12834803527070
H         3.79391511915465       0.25676401344708       0.48716362781076
H         3.14575906096142       1.45373358714284      -0.66111010390355
H        -0.76689816651917       2.08207663832505       0.57025728997909
H        -0.94954920799336      -1.61198609655311      -1.28408549463042
H        -3.07986208913606       1.83083720337171       1.50409714990785
H        -3.27480452906482      -2.02374978707166      -0.43896255840726
H        -4.35830416561685      -0.27090895733432       0.99700654971159
B        -1.98600493319242       1.76061289639913      -2.77367520343481
F        -2.35723066212085       2.49248935227535      -3.89995726465403
F        -3.11502491635044       1.19277827644393      -2.11615600429473
F        -1.29858447253271       2.62058238190468      -1.82491347648988
F        -1.08401847203893       0.69578991828375      -3.12324268911151
