58
C16H36BF4N optimized with ADF in AMS.
N        -0.22493162625979      -0.10846177165182      -0.08831800855699
C         0.56083432985425      -1.22672520645786       0.59862176846090
C        -1.17754151229778       0.51308630912919       0.92684645680153
C        -0.99728991684355      -0.71515136589212      -1.25309160999125
C         0.69974430620818       0.96925559571934      -0.61122912299509
C         1.50117615945998      -0.79171172601912       1.70901359197919
C        -2.16360108404704       1.53511105712851       0.38546837276246
C        -2.11724142245172      -1.66472707904297      -0.86881870343666
C         1.78963713557175       0.50548455186407      -1.56296521191655
C         2.05131064989538      -2.03491409600188       2.41940224294470
C        -3.16872622056725       1.87515619818805       1.49393071893920
C        -2.78678937953221      -2.23418689094882      -2.12224680772086
C         2.65420428263881       1.69118984381308      -1.99909261632130
C         3.00707721773038      -1.66893542346272       3.55127773643783
C        -4.23435596685929       2.86194363319214       1.02806068807047
C        -3.92020364902686      -3.19095647005646      -1.75685047218468
C         3.76406879294588       1.26780223012956      -2.95684979229319
H         1.11288410947733      -1.74070110463299      -0.20347872588443
H        -0.18754743018131      -1.91989987016841       1.00887965757008
H        -0.53924351812952       0.97089515784556       1.69439275044687
H        -1.71317961413548      -0.31808744820123       1.40460267312427
H        -0.24965115949814      -1.23770746262898      -1.86683414425285
H        -1.38021655489037       0.13270580331919      -1.84250486603120
H         1.14541268830812       1.44435167276586       0.27577248646177
H         0.05659399019571       1.71368968376939      -1.10293941246269
H         0.95591520532632      -0.20086505043335       2.46094960004276
H         2.33971983368230      -0.18334384354646       1.32345677856978
H        -2.72431747440607       1.13206873147354      -0.47438921746530
H        -1.66119745980461       2.45926610401206       0.04822889709485
H        -2.87469140285956      -1.15799773154361      -0.25223200897145
H        -1.74258092693689      -2.49174454406604      -0.24600518739447
H         1.35457703662573       0.03438964890650      -2.46016052645152
H         2.43457399490221      -0.24506212576568      -1.07710513469942
H         2.56401047078566      -2.68808560389159       1.68933194389213
H         1.19441089703734      -2.60026412354942       2.82167109080144
H        -2.62771660603261       2.28728562258581       2.36461800518657
H        -3.63798424654189       0.93784876901976       1.83929034003269
H        -2.03737999341921      -2.76361060152074      -2.73945270459648
H        -3.18066249541491      -1.40998538920354      -2.74663030218587
H         3.09452388590619       2.16950355887913      -1.10536369277283
H         2.01550596695210       2.45343725818620      -2.48106230766303
H         2.49501430477282      -1.05079495181567       4.30553444328263
H         3.87916841775008      -1.10516920091149       3.18126966402843
H         3.37929427098788      -2.57184648139375       4.05834619456047
H        -4.80447799510443       2.45436237499289       0.17754521247134
H        -3.78850685533628       3.81792153335114       0.70887697648745
H        -4.94954760995657       3.07673443046312       1.83624381505499
H        -4.69180881334221      -2.67515011645308      -1.16464588271153
H        -3.54366567570059      -4.02526824705546      -1.14549915798644
H        -4.39675184947165      -3.60724765493328      -2.65720941428571
H         3.34576342368776       0.81073806564550      -3.86793523166021
H         4.43085567150918       0.52863533697454      -2.48552087713844
H         4.37623503084238       2.12903352677044      -3.26242250290347
B        -2.12139167244109      -2.42911338613968       2.87773918445164
F        -2.67257176527262      -3.17018850547151       3.91976545865912
F        -1.12785565351610      -1.51118154998988       3.35675155423304
F        -3.13001564645646      -1.66682484979386       2.19099219928395
F        -1.48462262381964      -3.29113873248109       1.91170879380135
