40
C12H22F3NO2 optimized with DFTB in AMS.
N        -0.37874145595446       0.49729036730568       0.23061313243309
C        -1.37199394242805       0.82415456467754      -0.84450057702029
C        -0.55258237903712      -0.93344281062402       0.65234034850157
C         0.99459466420983       0.69457279699846      -0.36539176244632
C        -2.81185529788539       0.55672710740854      -0.41998286188003
C        -1.97600882251375      -1.25474418974528       1.08282165995205
C        -2.98601378365490      -0.90416921410315      -0.00693954575050
C        -0.54550120860001       1.42956511183508       1.37791988163716
C         2.15646575252381       0.23749384285343       0.51432743571265
C         3.47930158619723       0.73800124333477      -0.07550078763179
C         4.65356230372362       0.27038649245843       0.78225389479371
H        -1.12273146933537       0.20364986609772      -1.70996790370920
H        -1.23363542867705       1.87460375574022      -1.11234406675017
H         0.13627219252293      -1.12423232680252       1.48335041990044
H        -0.26342292340928      -1.54930857121632      -0.20345940239296
H         1.07959450712706       1.76291239957962      -0.58772383943348
H         1.01095761461052       0.14376048581134      -1.31003458056815
H        -3.45411046611118       0.78547843510394      -1.27465030147925
H        -3.10018383921605       1.21981186540290       0.39966400357819
H        -2.21952063445414      -0.73014465561389       2.00959117330979
H        -2.01263158668161      -2.32634410579748       1.29364494282779
H        -4.00230067818523      -1.06335258872640       0.36053092003704
H        -2.83264935027097      -1.55009763676034      -0.87778259370378
H        -1.50117775883244       1.25254106747352       1.86147025899955
H         0.24872691442159       1.25926024759208       2.09797522291676
H        -0.49809851579254       2.45229330588298       1.00737867782728
H         2.17904288716164      -0.85200518976912       0.57171160156482
H         2.05090210152393       0.61458085252923       1.53272207862683
H         3.47121232960303       1.83275958833419      -0.12412563115959
H         3.59322554556373       0.35757864797156      -1.09670124821220
H         4.67776541729450      -0.81822463083494       0.83180195922457
H         4.56218496129809       0.66106216747954       1.79583903408084
H         5.59153354204679       0.62323750882540       0.35368788805881
C         1.55184216779097      -1.66133025150955       3.83046760047797
O         2.01484726016008      -2.30340875232152       4.73971384647383
O         1.57396319119439      -1.74210535256030       2.60032059565769
C         0.66702897692336      -0.33491747830212       4.29569246729923
F         1.26397232825978       0.81599139368589       3.86672579414799
F         0.43129654193575      -0.18008740877185       5.59749516593774
F        -0.55926513255309      -0.32712031912324       3.67889905756036
