43
C13H24F3NO2 optimized with ForceField in AMS.
N        -0.83612095254053      -0.20796234301316       0.02735906151348
C        -1.17291059508531      -1.24607366653021      -0.99576838950461
C        -1.97069007195647      -0.24283515814818       1.00093179255470
C         0.43592694628748      -0.57172998012581       0.73384676701801
C        -2.59552057740770      -1.71274001460896      -0.75335544784875
C        -2.80497640499982      -1.47552440884187       0.71494668441303
C        -0.76240441399213       1.13646838159046      -0.63260760680026
C         1.70081274367557      -0.54204318923226      -0.15849577809543
C        -0.40312554902919       2.30162482120115       0.32043008958229
C         2.91526180320221      -1.08408336052115       0.60571812368338
C        -0.49328078218403       3.64280192924504      -0.40288822210253
C         4.18093059482752      -1.01653294946125      -0.24343626777069
H        -1.07305312158786      -0.88063654619352      -2.04349823454350
H        -0.52109015411070      -2.14611509995537      -0.91541530157623
H        -1.63933841062274      -0.25175484365874       2.06449765618298
H        -2.64756071240836       0.63568454712320       0.89092959389732
H         0.33786674130716      -1.59280310951066       1.17153474102105
H         0.60733289424186       0.10327487527761       1.60150429276608
H        -3.30366308210453      -1.08814881816212      -1.34196579662463
H        -2.73190377555530      -2.78468297576967      -1.01561118970327
H        -2.41515694153789      -2.33943049997969       1.29768852539610
H        -3.87946830167482      -1.31513345585622       0.95222473451091
H        -0.02314194355033       1.12335249882562      -1.46381852450336
H        -1.74121001460406       1.36680179196076      -1.11519141060813
H         1.54996577471101      -1.15294962410498      -1.07348477651386
H         1.92347801934786       0.50050931724935      -0.46813428749551
H        -1.08861352637752       2.32721395512974       1.19302062242734
H         0.63494082510986       2.19185367462573       0.69640123139734
H         3.07341409527375      -0.48571939625572       1.52973815844962
H         2.73503802579249      -2.14229305974356       0.89614756004285
H         0.21673635813699       3.66657115340116      -1.25716028583957
H        -1.52519664706751       3.81243106512031      -0.77761678698499
H        -0.23191581155345       4.46282441799261       0.29880681668372
H         5.03510829779440      -1.43004676582337       0.33341212411670
H         4.05497974531626      -1.61296522139154      -1.17191166973854
H         4.41029701695364       0.03696192767969      -0.51134932943894
C         4.93626346038998      -5.14977792002188      -1.50260454167344
O         5.57560619937769      -5.87502959884904      -2.24795310884864
O         5.40924436016006      -4.08224967645500      -1.14829295982792
C         3.57702315737839      -5.56174646777140      -1.02168629022227
F         3.56686270348524      -5.59749101210913       0.36022223599810
F         3.24905524815552      -6.81585513072556      -1.50703481131300
F         2.63610293882533      -4.64853241050240      -1.45949476287692
