33
C9H10F6N2O4S2 optimized with DFTB in AMS.
N        -0.77441202209117      -1.37511500276649       0.45764146731009
C         0.40764144290898      -2.24609313423534       0.59355865977116
C        -0.61870313331724      -0.08466991217561       0.11361267098591
C        -1.98754922947612      -1.87569821007875       0.72190055614501
C         1.42430968267789      -1.66155586913912       1.56604285298340
C        -1.70707057350169       0.75485771178153       0.03804103599973
C        -3.11079835107223      -1.07150821946936       0.66704756944893
C        -2.97645056560209       0.26380688557146       0.32806495273475
H         0.05458889569591      -3.21180907927998       0.96050010028450
H         0.84349865798758      -2.37281988753656      -0.40224254250590
H         0.38744613909556       0.25514727742623      -0.09730493603614
H        -2.05049469521106      -2.92087118120239       0.99373626925396
H         1.87865800999469      -0.75252589200173       1.17423864415598
H         2.20670125681933      -2.40171145216419       1.72725153103749
H         0.94661772179318      -1.44423406101667       2.51939712992356
H        -1.55724460573538       1.79186168333235      -0.23424419798707
H        -4.06981122066270      -1.50358905527785       0.92269257342119
H        -3.83878986681620       0.91819648341615       0.29439380875603
N        -2.81640810067911      -3.26135160350534       4.79306126330254
S        -3.47568189285092      -4.10006853543484       3.58984036441198
S        -1.69446585155810      -2.20825632510025       4.38727918569613
C        -2.16075889339521      -5.31935153210695       3.00400589429862
C        -2.54702272507033      -0.56261647824552       4.04351730292497
O        -4.51193488079827      -4.91515509019302       4.15201412280265
O        -3.78500380725587      -3.33670321553391       2.39059868716077
O        -1.01642543075848      -2.47957158589976       3.12276407973627
O        -0.87837065555332      -1.92390932051979       5.53305280899808
F        -2.70131741528921      -6.51196330111982       2.83295810444497
F        -1.17003541333286      -5.41466430726096       3.87079907816777
F        -1.65806424936493      -4.91983857236034       1.83052583046273
F        -1.78980796746216       0.13338661085075       3.18546139703246
F        -2.68701992722375       0.14592903346528       5.14645178093940
F        -3.73916654739469      -0.72199194261925       3.48313643983804
