39
C9H20F2N2O4S2 optimized with ADF in AMS.
N        -0.49758598217756      -0.25739229512787       0.13198501132765
C        -1.39531219751209       0.60439240362325      -0.74378472521970
C        -1.36129927768804      -0.95109242995209       1.17916883289975
C        -2.24080225530314       1.58874648094773       0.04495678033535
C        -2.22552401453614       0.00531307914367       1.98203584694897
C         0.56757584429460       0.55994987086752       0.83075650012266
C         0.11077233370725      -1.31029135578685      -0.78661631189212
C        -3.10457303917425       0.85599867034758       1.07013113701210
C         1.58855096486872       1.21241169621209      -0.07898563245055
C         1.00362377573486      -2.32260797118021      -0.10394555342937
H        -2.04423067206510      -0.11204926097803      -1.26966057635712
H        -0.74649345472518       1.09914063648784      -1.47978743799153
H        -0.68328483788145      -1.52219130142411       1.82617882418378
H        -1.99501232378594      -1.65353139457430       0.62573136059923
H        -2.87019624801075       2.12298380772226      -0.68682938506338
H        -1.61308227466920       2.35480141829680       0.53404729454070
H        -1.61701732116741       0.64292000416650       2.64829903959596
H        -2.84895081352995      -0.63472148189800       2.62751144490701
H         0.03709969435891       1.31653257165255       1.42050953705025
H         1.05433917171038      -0.12427992870279       1.54010232771531
H        -0.75219229405131      -1.81143535047690      -1.24752516921494
H         0.64654514475865      -0.75399585577636      -1.56942112142338
H        -3.69318405543714       1.57435532127849       1.66249101420942
H        -3.81737981277954       0.19542645822772       0.54697236941934
H         2.26629408738114       1.81068771672731       0.54972485071988
H         2.20319326110239       0.47852322513560      -0.61794169601761
H         1.13045871290421       1.89775707617666      -0.80568101742055
H         1.38280074681936      -2.99867050648042      -0.88570177076349
H         1.87333135373728      -1.87352965701237       0.39745114768744
H         0.44325518418688      -2.94688258645470       0.60422158863457
N        -4.33598020321390      -4.14584449648546      -0.34283901037194
S        -3.16435711159247      -3.65683258325018      -1.29873874106506
S        -4.58484580352056      -3.43292504467573       1.07770190931221
F        -1.76185296974986      -4.14136358839280      -0.50536171712954
F        -5.19315954126606      -1.93926121880062       0.64374175786083
O        -3.16670158477683      -4.43539738478142      -2.51513122469564
O        -2.96375851070561      -2.20384364822389      -1.37103992518145
O        -3.37820478370420      -3.08300774511278       1.81850529253909
O        -5.68727108274094      -4.09176314786570       1.73625260796589
