54
C14H26F6N2O4S2 optimized with ADF in AMS.
N         0.42988858265233       0.90951238197651      -0.83822889598199
C        -0.72378540475160      -0.09854780169986      -0.77241112564246
C        -0.11992698827039       2.18533795056263      -0.19425527652906
C         1.61562909247460       0.40938972123930      -0.01930863957269
C        -1.94848905818782       0.70479646160994      -0.36236104918457
C        -1.34086696790886       1.73750592980278       0.58822170041625
C         0.82663021451363       1.16549585105962      -2.29264441939739
C         2.12049523228884      -0.97776468231217      -0.37216952846606
C         1.61846295951607       2.43311297082348      -2.52564336334039
C         3.26409820375228      -1.35189322559792       0.57733593260078
C         3.95886668808044      -2.64594701787888       0.16116005556065
C         5.07334595150821      -3.07068871857019       1.12219038081870
C         6.21886655543884      -2.06209899789348       1.20861000060148
H        -0.47052419545714      -0.82623347325802       0.00804004244652
H        -0.79524302877878      -0.62197430062277      -1.73392361911246
H        -0.42285521307073       2.85345263697918      -1.01048443052910
H         0.68210061018727       2.66439921848378       0.37967345912027
H         1.28381620724853       0.45550563851610       1.03102243603098
H         2.41859204131897       1.13940942392215      -0.16900689280407
H        -2.71040019078349       0.06280936334119       0.10260307852784
H        -2.40702634844111       1.20727838048401      -1.23079941430643
H        -2.00768484177048       2.58253842211488       0.81192734064797
H        -1.05377065173678       1.26627407524871       1.54313457154318
H         1.40312850694267       0.28255813641989      -2.59892501772274
H        -0.12211731810337       1.17890789787007      -2.85215919517397
H         1.32603714280760      -1.74109008935901      -0.30519463617000
H         2.52040716284881      -0.98196527115532      -1.39749079185644
H         2.00979341664526       2.39218311962757      -3.55308054515852
H         1.00645383542347       3.34129024781814      -2.43851779345844
H         2.50052766948287       2.52202730088500      -1.88130430009518
H         2.87880594415926      -1.44697332903866       1.61080223998771
H         3.99620124334036      -0.53178268531589       0.57617138994131
H         4.39029323143732      -2.50080235101389      -0.84642005143844
H         3.21142711176777      -3.45807179893106       0.08203966768575
H         4.64331973851141      -3.24264800104526       2.12719811000911
H         5.46892049648412      -4.04532521786177       0.78502926819822
H         5.89654410426053      -1.11076352869472       1.65903040216259
H         7.04264999713873      -2.45384401786775       1.82515203837702
H         6.61453510122073      -1.82664472911831       0.20883806107436
N         6.10542609976249       2.13909115773720      -0.75620942226392
S         5.31779887306832       3.50330896770242      -0.42823318564208
S         5.55490061238534       1.04384408356168      -1.78827302655541
C         4.29864645486141       3.08058172430387       1.16062951206821
C         5.88668004315031       1.75861957955471      -3.53054590100211
O         6.27142245213061       4.48582504746131       0.05386241350267
O         4.28689343501935       3.88371638389440      -1.39539979083738
O         4.09858407641270       0.82907793951126      -1.78374710139097
O         6.42463129784862      -0.12046068652125      -1.71742185341747
F         4.71632003358161       3.81064793125319       2.21163331786124
F         4.36639099872311       1.76732748014821       1.50180485839873
F         2.97207022447988       3.37190313812812       0.95813165685570
F         6.15979315636837       0.73591404047909      -4.37781590346311
F         6.93610666116450       2.60537322815140      -3.52004592420835
F         4.80374472265299       2.41897630688443      -4.00978101151607
