22
C8H11NO2 optimized with ForceField in AMS.
N        -0.71682927769280      -0.01356611422289       0.02650216268012
C        -0.03984245135530       1.17298471852057      -0.03334626070262
C        -0.03795190599739      -1.20075950221065       0.04965256924997
C        -2.18105648711012      -0.01137367915642       0.02588768914416
C         1.35695915568941       1.19213575845120      -0.04152082014150
C         1.35899859037635      -1.21793341648612       0.03699515991975
C         2.05805433314363      -0.01236185614339      -0.00421009582951
H        -0.57788939263106       2.11265357944266      -0.07427370266292
H        -0.57361667646691      -2.14256344409987       0.07338643581694
H        -2.58007740278864      -0.91705575902294       0.53213573764007
H        -2.57191011447155       0.87509017941503       0.57113948190633
H        -2.55149815121476       0.01194644306569      -1.02053831466288
H         1.88993652983626       2.13335451050104      -0.07950367518307
H         1.89373723005424      -2.15877433093204       0.05719811919884
H         3.14026104296125      -0.01176449358876      -0.01198184244138
C        -0.33633276536698       2.15774512738907       4.23467265385644
C        -0.94582056812588       3.34596716785836       3.55990297749726
O        -0.73942154193550       3.54544756938984       2.37419002386625
O        -1.64877196289599       4.11901160839614       4.19089510490261
H        -0.69812389060307       1.22686573828078       3.74936857701854
H         0.76960086505471       2.20776683614593       4.15004097872203
H        -0.61270348625987       2.13370177110676       5.31082629780457
