55
C15H20F18NP optimized with ForceField in AMS.
N         0.27300812057430      -0.11728291316933      -0.19160127058188
C        -0.59226026650154       0.69412870169403      -1.10836408254414
C        -0.48772620623401      -1.33695981187574       0.23695161867082
C        -1.95880333256646       1.07126510395558      -0.51146777820886
C        -1.86957353779771      -1.03296163525656       0.85110776140145
C         0.69187296957365       0.66585442918255       1.02302156959967
C         1.46217761310431      -0.55461896422010      -1.00108524064754
C        -2.71886053888517      -0.18061183308223      -0.08635459735921
C         1.55901768278495       1.90885930490468       0.75053540719120
C         2.53919609131166      -1.34680719657525      -0.23622173831831
H        -0.79654757840645       0.12313690496674      -2.04461552040592
H        -0.07816631214231       1.62028760150862      -1.43967116222725
H         0.08189825821546      -1.91548777448630       0.99563197656976
H        -0.65155951880907      -2.01842066231836      -0.62962515048529
H        -2.55437490043170       1.60467949704709      -1.28366139762908
H        -1.84607513427770       1.76827258532736       0.34434193393690
H        -1.76519983295900      -0.53057029574110       1.83542735841960
H        -2.39875948458792      -1.99254742175889       1.03750293488806
H        -0.18604373138689       1.01688293309682       1.59872366997104
H         1.24396160184829       0.01375335610283       1.73403703132325
H         1.13358887329615      -1.19493022225381      -1.85194687865371
H         1.95756855584279       0.31918241870599      -1.47921343321906
H        -3.66008000033068       0.11191032068186       0.42701459681797
H        -2.98844700975349      -0.77582851673408      -0.98650598220135
H         1.82492409836079       2.37637814179266       1.72211014665080
H         2.50985820143489       1.65273698756554       0.24334154597995
H         1.00857719091151       2.67176299556843       0.16547687595684
H         3.33176740117772      -1.65218736457593      -0.95098435437152
H         3.02582838555077      -0.73045407669921       0.54580443580940
H         2.13063063386962      -2.27398796164434       0.21121605492996
P         8.51951873196529      -0.11478512038063      -3.69437293512367
F         9.39020250776172       1.30135252166290      -3.24805535939941
F         7.63426096157192       0.10742115131712      -5.15649265486124
F         9.53278359493623      -0.67161675693009      -2.42014466265264
C         9.92077614784614      -0.10447233480682      -5.03530791335669
C         7.23989280542766       1.06740004695334      -2.85043228665990
C         7.78801671051002      -1.86903860880021      -3.34081276751184
C        11.39203542433095      -0.14796000975924      -4.54000619057005
C         5.76152592302884       0.62554818088083      -2.85550432708547
C         8.60542260469133      -3.08213193116669      -3.82747117415372
F         9.80390986895668       1.04990742870935      -5.79990154170738
F         9.74469154979743      -1.16957530724468      -5.89586631349033
F         7.26354227008272       2.30730888403908      -3.48205611406258
F         7.60411635722045       1.24837883487435      -1.52357804596545
F         6.55712225294877      -1.96988533774322      -3.96465310984586
F         7.57117716144579      -2.02239818043012      -1.97776845197534
F        12.22332555052229      -0.29460690045898      -5.63663732548744
F        11.63171040555758      -1.20645090419214      -3.69047160886988
F        11.74804135681091       1.02717077432982      -3.90259516939793
F         4.98742855211094       1.66209244405372      -2.36252984404569
F         5.31952231105802       0.34231205316321      -4.13412280568826
F         5.55659275550367      -0.46556978680952      -2.03561480014068
F         8.53163389603229      -3.20391773408917      -5.20179278857964
F         8.06631114521236      -4.23330437783242      -3.28077994219388
F         9.92326813228322      -3.00994404514933      -3.43599967443865
