26
C6H11F6N2P optimized with ForceField in AMS.
N        -0.52847696654293       0.19424105027842      -0.36080606108681
N         1.65527634292035      -0.07431785454366      -0.04888646154305
C        -1.92811291268738      -0.09693150693173      -0.65744310643779
C         0.50052003815426      -0.67444069060551      -0.39476478216307
C        -0.00717303541558       1.38004111820657       0.01544471797298
C         1.35011966573654       1.21273164170729       0.20842396885976
C        -2.73119616488729      -0.20076006909771       0.63349434865889
C         2.97092632287739      -0.69251935323892       0.04239492122086
H        -2.34867376004437       0.70446807846756      -1.30259101846856
H        -2.00614548201124      -1.05937986563492      -1.20907658758510
H         0.40858359676835      -1.72176602936016      -0.65454551057182
H        -0.57127391188074       2.29560528196346       0.13874809793602
H         2.05925595472000       1.97042403797353       0.51691828312152
H        -2.32068901471989      -1.01375271337295       1.26976388555791
H        -3.79076827975162      -0.43189164063557       0.39705675764306
H        -2.68824065516960       0.75781445995605       1.19235473161371
H         2.90845560402999      -1.77678462071733      -0.19036602379958
H         3.66230740444588      -0.20739251469152      -0.67783948217070
H         3.36611208078406      -0.57482368906775       1.07131606572748
P         5.22767649021077       1.56604311783071       4.07052761699296
F         4.37071224464543       2.94537318234877       3.50947719691493
F         4.90734178880900       0.77257577718296       2.58300255008600
F         6.67966857073151       2.19022485724617       3.39714634602235
F         6.07553378490538       0.17513890409749       4.61671311594114
F         5.57158139151231       2.36726052692716       5.55058624595837
F         3.77179871445941       0.93253077581162       4.72718876939854
