50
C14H30BF4N optimized with DFTB in AMS.
N         0.58112803957157       1.08033635079438       0.48144223256048
C         1.27726391878502       1.65945927964909       1.68715741475784
C         0.17054335046627       2.27122239224478      -0.35714375666164
C         1.52379854371260       0.21905898182413      -0.30814780359162
C        -0.62424609338102       0.32138063287016       0.94794790793665
C         0.63197631155063       3.01466600039738       1.90977482981889
C         0.39813478069526       3.52262257676865       0.49040680328415
C         2.09879695713788      -0.95389460484238       0.47951457773522
C        -1.37996988770132      -0.41952757453913      -0.15478513255778
C         3.25006510558180      -1.57005658493139      -0.32403189059770
C        -2.70854329078937      -0.94734562235822       0.39976361609944
C         3.87832501746930      -2.75049211127616       0.42174188012009
C        -3.48173002903169      -1.72335053292822      -0.67129701821881
C         4.96267258350345      -3.41994088880657      -0.42079505521788
C        -4.80837828105302      -2.24820467287886      -0.12603515044143
H         2.33162749377889       1.78225211084962       1.43521720223866
H         1.17319715265075       0.98067974325514       2.53348468617862
H        -0.87364448494471       2.15472001334255      -0.64917159067365
H         0.79400034612068       2.29116995924501      -1.25096188087723
H         2.33716590531983       0.87455715509005      -0.62516085126312
H         0.99080565664403      -0.12954201554426      -1.19525306425399
H        -1.28342630186482       1.04674518248380       1.43259606336766
H        -0.28902010091332      -0.39509695830461       1.70197942191129
H         1.31295243949889       3.66751906458795       2.45655272509854
H        -0.30679016682296       2.92500466503793       2.46462136787891
H        -0.45455649999463       4.20050580245764       0.43000346618011
H         1.29378601812848       4.03857648012753       0.13772648832925
H         1.33104398579359      -1.71005337139868       0.67448971929977
H         2.48829055895581      -0.60523011575281       1.43881408534047
H        -0.78564891144011      -1.26225635561712      -0.51737733401487
H        -1.57978614058785       0.24213343186693      -1.00172482864594
H         4.00766619410883      -0.79910820409014      -0.49637612669558
H         2.87685848023096      -1.90471684262156      -1.29826296641761
H        -3.31548928076831      -0.10713778678604       0.75402101381309
H        -2.51057764926434      -1.60162624422304       1.25557301132136
H         3.10297174089228      -3.48586685191953       0.66683829592439
H         4.31164798040896      -2.39582366610948       1.36247633117586
H        -2.87259652334815      -2.56342372983636      -1.02131711685972
H        -3.67224209904109      -1.06789741567858      -1.52771206952008
H         5.41343532246892      -4.24264414753137       0.13475380041572
H         4.53772106709872      -3.81522380052438      -1.34480367368751
H         5.74319044799571      -2.70255595691743      -0.67698416907752
H        -5.33904988890899      -2.79694105056593      -0.90405609958617
H        -4.63690803324696      -2.91854960599918       0.71726762944178
H        -5.43793100552655      -1.42258218884252       0.20855005345706
B         3.89598911303813       2.84681709842350      -0.08783986871048
F         3.37041243488293       3.60187921358428       0.97905789987372
F         4.06434822719530       1.50909245990430       0.37017548128265
F         5.06072553808508       3.36369282287323      -0.56868455164547
F         2.89048786685864       2.79784536894591      -1.10109764232586
