28
C10H16ClN optimized with ForceField in AMS.
N         1.74481729423917      -0.02789107930252      -0.51535076781121
C        -0.63858872661686       0.00649744148729       0.06695534532890
C        -2.07585946847857       0.00269886942244      -0.46271865577688
C         0.38580488456976      -0.04844517512066      -1.06982637899313
C        -3.07586100352819       0.04869039853961       0.69911880145878
C        -4.51542915548728       0.05256672407923       0.19471076132657
C         2.35943256471443      -1.20326778694609      -0.17964155209316
C         2.36697937916435       1.16928585651808      -0.28854294991311
C         3.63367043982094      -1.19892668206907       0.39418802963207
C         3.64129971927385       1.20943755738367       0.28368136810936
C         4.27607594820828       0.01643558779072       0.62670283153640
H        -0.48901415045499      -0.87434480044019       0.72780511946655
H        -0.46819053683136       0.93013106392318       0.66278725898240
H        -2.24575406133293      -0.91925914023291      -1.06189161345212
H        -2.22924585265922       0.88777777042319      -1.11960409664335
H         0.23112395491324      -0.97082551248076      -1.67342767904841
H         0.23772424121066       0.81542935072220      -1.75641583108299
H        -2.90411607181277       0.96690699479977       1.30297389060443
H        -2.92776654073805      -0.83675575381662       1.35613443405279
H        -4.69724204229036       0.94162972367849      -0.44629628583936
H        -5.21001324652017       0.09108552391111       1.06057225773299
H        -4.72326770640875      -0.87110550710647      -0.38676737700276
H         1.85992395738387      -2.15092814117909      -0.34339763418070
H         1.87309527679734       2.10099114109731      -0.53855859976953
H         4.11522028658668      -2.13076692311133       0.66091485567967
H         4.12855738005105       2.15875719588492       0.46455009875958
H         5.26276583598763       0.03383662101615       1.07299375449176
Cl        0.28819735133825      -2.44011929037168       3.07877827674445
