38
C12H22N2O2 optimized with ADF in AMS.
N         2.34698647025981      -0.91643815875459      -0.61824943791174
N         3.91718197018039       0.36301185007406       0.17834985478837
C         0.02086829600777      -1.70876164243813      -0.14826459932478
C        -1.05765818217172      -0.63309685046057      -0.02787119859088
C         1.09047639355845      -1.37676150044066      -1.20591138372057
C        -2.09643284673591      -0.96399993718324       1.03989558162082
C        -3.18395901930503       0.10180846285736       1.16374455212152
C         2.72100872833061       0.36520275564106      -0.44296481647009
C         3.25889733160777      -1.74040141085150       0.02698778953946
C        -4.21650985352686      -0.23749638869125       2.23591931728548
C         4.22787788837024      -0.93789446262136       0.53569518801746
C         4.49934659980340       1.53849637272591       0.80507325351174
H         0.52420412452831      -1.83647083303753       0.82650381617290
H        -0.44217217400130      -2.67917228883652      -0.39930250374555
H        -1.56205341033926      -0.51893133257420      -1.00723001120561
H        -0.56669541895019       0.32509262144350       0.22238790801975
H         0.73942968199418      -0.58425911710031      -1.88385087272565
H         1.33670082774954      -2.25262159280940      -1.82639515473430
H        -2.56584478895132      -1.94366079900443       0.82156935393914
H        -1.58784540131863      -1.07021528837206       2.01575159088690
H        -2.70667900786364       1.07071214088998       1.39536984913337
H        -3.68568987228892       0.22657260650733       0.18586793203337
H         2.26131430655420       1.21865760904772      -0.91704409951857
H         3.12554873362884      -2.81354052226581       0.06659583394611
H         5.09608522858478      -1.16787578948152       1.13907882604439
H        -3.73210332306564      -0.34790211687421       3.22002459502852
H        -4.98729663161495       0.54298217227656       2.32464568265186
H        -4.72391775142466      -1.18894515018775       2.00509050668386
H         5.59231734842682       1.43968902565619       0.81255865280515
H         4.21340621223915       2.42857401379756       0.23376430188491
H         4.07614819570643       1.58083219634916       1.82502993470038
C         0.25779584526885       1.08933308338535       3.26414799970560
C         1.43494125086685       0.92799440268679       2.29234982306169
O         1.22621823208281       1.32807205818987       1.08962344079051
O         2.48793136869072       0.41551055364502       2.74473561464821
H        -0.57841921236777       1.64473172835115       2.81907651898575
H        -0.09112013376307       0.09211575704639       3.57311808028581
H         0.60503708364895       1.60080079111408       4.17424755025472
