38
C12H19F3N2O2 optimized with DFTB in AMS.
N         1.07126231528478      -1.62570203146664      -0.00132969822759
N        -0.49504060650230      -0.57642010893682       1.04295162559690
C         2.39345926763860      -2.13692283439647      -0.35494352408798
C         3.32896188244982      -0.98989835967037      -0.74806333482274
C        -1.19612722570709       0.19633818623709       2.07128770717006
C         0.76626283433065      -0.98957267383451       1.12894163435435
C         2.79373093263846      -0.14854861698380      -1.90860267553559
C        -0.01071053635405      -1.59108704603052      -0.83832498906950
C        -1.00099404188269      -0.93713349290918      -0.17690809902363
C        -1.91996716586149       1.40350915422357       1.47280349416422
C         3.69378373257042       1.06222681964573      -2.14532227840774
C        -0.95429949721590       2.38905377841481       0.81996232976427
H         2.79305628627498      -2.66815641428048       0.51309272836917
H         2.26189750261772      -2.84400126242842      -1.17869196364307
H         4.29454256258414      -1.43018089654708      -1.01347344763221
H         3.47368334293072      -0.34323373226328       0.11907700688459
H        -0.44309875960402       0.52952309674047       2.79140216720391
H        -1.90857124931102      -0.47194611179944       2.56628943436135
H         1.41495659570717      -0.87960368853906       1.98055454179082
H         2.72819034167541      -0.75980534279730      -2.81634682627112
H         1.78817505653218       0.20599271301005      -1.66191275144183
H         0.00914125848371      -2.03472534961599      -1.81812255346100
H        -2.00780828852782      -0.70888035674468      -0.47770792154265
H        -2.67073917887354       1.06750095374508       0.74974636603713
H        -2.44953595820308       1.89523027372613       2.29456374723560
H         4.71393380740075       0.74895985048517      -2.37188794366555
H         3.70644008542040       1.68514992163247      -1.25092623782353
H         3.31429327742988       1.65132547765479      -2.98045770641463
H        -0.37495574019372       1.90026443013171       0.03719652663410
H        -0.25875982102550       2.77614648333767       1.56303233397461
H        -1.51204160672105       3.21830889949620       0.38508372919320
C         2.15367306963098       1.42687552100690       1.95792504726153
O         1.96711426070164       1.31338948622220       0.74417541476996
O         1.39452235522151       1.68495448164303       2.88338541728178
C         3.64031531142392       0.98275174025060       2.41234728395256
F         4.05330626608448       1.45773389865245       3.58700632031661
F         4.59097545237597       1.25584594087126       1.50535888749672
F         3.61755347197499      -0.38322234038334       2.52791070595692
