51
C15H29BF4N2 optimized with DFTB in AMS.
N         3.22632464783806       0.84730692494444      -0.60057483747793
N         3.16832885062517      -1.29922138238915      -0.71721639873468
C         1.90566870311409       2.90782118491736      -0.36021107712796
C         3.23010059996770       2.20347363990738      -0.05563243981481
C         1.77809903129772      -2.96566549943068       0.44769957552307
C         3.07891376079311      -2.70266434463220      -0.31677482617663
C         0.71792532103399       2.17473350340060       0.26843737079046
C         0.53943852569579      -2.51689262650398      -0.33147155001385
C        -0.60578161795916       2.87952754023716      -0.03444091533086
C        -0.71890991923784      -2.64592627970980       0.53140923693844
C         3.27457293568897      -0.26887603062552       0.12055315451369
C         3.07616688036655       0.52637038882092      -1.92363890712302
C         3.03471773508756      -0.82978481699135      -1.99580728640344
C        -1.77658542209776       2.10848218458073       0.58353387701449
C        -1.96049978928989      -2.17681384970858      -0.23219168367208
C        -3.11288558878979       2.79059292604086       0.29794437673519
C        -3.20739133422267      -2.22838876528283       0.64902609719685
H         1.97494141258080       3.92241541479007       0.04345744033465
H         1.77218697024848       2.98650127599763      -1.44457453294644
H         1.81901621325189      -2.43688469556375       1.40193271869578
H         1.72787077042614      -4.03875782870764       0.65301883634787
H         4.06818062385870       2.74722875416406      -0.50196383673481
H         3.37944259960149       2.11699001333668       1.02310570731924
H         3.94085878842628      -2.92936659635217       0.31681049911146
H         3.13539262651393      -3.30557383684617      -1.22727149034594
H         0.86453064054702       2.11391425497743       1.34967526701151
H         0.67898236504851       1.15094885871700      -0.11545379971858
H         0.43727100738410      -3.11080288394386      -1.24763419060932
H         0.65769789609733      -1.46757999798940      -0.62025127323779
H        -0.58213701261362       3.89811338201670       0.36863777905322
H        -0.74578978217770       2.95308008641930      -1.11958467043784
H        -0.59125157679644      -2.03402127089540       1.42924130498176
H        -0.84900132107086      -3.68737360979378       0.84466274730341
H         3.37924823585331      -0.33368501263886       1.19284579073854
H         3.01523055058654       1.27403591150134      -2.69464587611891
H         2.92701870850628      -1.48872278514743      -2.83946359261910
H        -1.79372147473143       1.09195787851085       0.17606786346019
H        -1.62912722323422       2.03097226703751       1.66510671084231
H        -2.11016107769843      -2.80666137972574      -1.11667711820028
H        -1.80543777619992      -1.14854273217178      -0.57797914895386
H        -3.12512962541464       3.79911513159169       0.71417600857148
H        -3.28777011841986       2.85749899520043      -0.77728401220156
H        -3.92667260899829       2.22033358857749       0.74672855009286
H        -4.07829302114992      -1.88783649446751       0.08792485123015
H        -3.08241837450068      -1.58550054172248       1.52111880472443
H        -3.39151940967975      -3.24733331149426       0.99271749626796
B         1.88646642235124      -0.12654835220118       2.86030271860924
F         1.15214285520254      -0.08510402959054       4.00542135161347
F         2.59474836484526       1.08077011876628       2.63635011003815
F         1.06134284559169      -0.33527402229374       1.71790283186258
F         2.83498883665259      -1.17686580093420       2.86399786367722
