25
C9H10F3NO2 optimized with DFTB in AMS.
N         1.23305012296827      -0.16799501812644      -0.39084815743475
C         2.32913743101087       0.65330245883070      -0.94639101129420
C         0.58721986104980       0.15018508593016       0.74568539445986
C         1.05909951043299      -1.37661130088258      -0.96981407130618
C         2.64486604849784       1.91111663385666      -0.15823159045178
C        -0.31371258016583      -0.72115731193559       1.30966118267469
C         0.14070503213060      -2.27676647919085      -0.44564847935845
C        -0.53164832733399      -1.96513116485557       0.71906537505036
H         3.20558391996053      -0.00549108637524      -0.95662613821372
H         2.05935364976036       0.90167822321628      -1.97762404143555
H         0.80284356673452       1.10888764941471       1.19529700075946
H         1.55768558205329      -1.54634358941311      -1.91383517618381
H         1.79440198954557       2.59123597778864      -0.11979956336053
H         3.46825178068788       2.41769313277018      -0.66155772707200
H         2.96473301691732       1.66384590682573       0.85312129871572
H        -0.81781534433429      -0.44168693383502       2.22535102958816
H         0.02152475867541      -3.23914696797593      -0.92492131226709
H        -1.21418411031725      -2.67381715476118       1.17072305665173
C         2.83476678189424      -2.30493416924341       0.98965579619341
O         2.05262323410546      -3.00692944334146       1.59988039486489
O         3.02308427878344      -2.14642737861428      -0.22971650116525
C         3.69424372745542      -1.26522991954642       1.88282931884034
F         4.64139474692602      -0.63230409571726       1.16909177201987
F         4.27711433464178      -1.77751090942240       2.96647066107183
F         2.85036202491974      -0.28187192179630       2.31641589665296
