23
C7H12N2O2 optimized with ForceField in AMS.
N         1.10095070802356       0.01366032814157       0.02085598395909
N        -1.12052765991907      -0.00613196474538      -0.03546586844715
C        -0.00313582668262      -0.75813047839527      -0.00233754147207
C         0.66915010813561       1.28989217783081       0.00305050394596
C        -0.71089787259892       1.27765887137145      -0.03217914178885
C         2.48806455137767      -0.43248686737158       0.04238580321064
C        -2.49843144722331      -0.47785229189962      -0.08882647083875
H         0.00648291213698      -1.84124731960179      -0.00263899075332
H         1.30869770077388       2.16310428321954       0.00898376884084
H        -1.36489756404064       2.13964038650950      -0.05752885882377
H         2.54081948259557      -1.54218074895385       0.04598450425919
H         3.01656338082369      -0.05136572794948      -0.85674414040691
H         2.99052883527162      -0.04550916235912       0.95356140469867
H        -3.06036000164530      -0.09596840626600       0.78809388903455
H        -2.98244273478672      -0.11113242582413      -1.01813249864195
H        -2.53109260101569      -1.58811976948768      -0.07906634540259
C        -1.22108555070598      -0.67582079480049       4.38326209973733
C        -1.23766162121804       0.61237737867926       3.62292976992630
O        -2.27240642350164       1.00167506972838       3.10714755910497
O        -0.22107551860327       1.27966138893335       3.51912278176161
H        -1.94942142063271      -0.62387780736925       5.21978146820801
H        -1.49977214382681      -1.51198141775644       3.70812508444683
H        -0.21025178303786      -0.87219272693377       4.80049101254137
