40
C10H15F6N3O4S2 optimized with ADF in AMS.
N        -0.66172544672386      -1.03999758736226       0.38921616267007
N         1.41689054130988      -0.45875607950978       0.60470178050664
C        -2.10821873149810      -1.14408252210324       0.61745874706391
C        -2.87467222391936      -0.15412304843658      -0.25535540104003
C         0.21740521411974      -0.43815998804982       1.20277591118736
C        -0.00595965571760      -1.46166309832315      -0.74768410249776
C         2.65168236845238       0.13491113141350       1.14442122106129
C         1.30200156181708      -1.10032104452408      -0.61130044207100
C        -2.51468908146945       1.29857368233453       0.03642970410883
C         3.17425109481565       1.23285644691425       0.23263556984266
H        -2.27090621595529      -0.96408114557292       1.68774613425095
H        -2.39558029023339      -2.18658440667214       0.41602264157884
H        -2.70002932159200      -0.38477287785605      -1.32134586905803
H        -3.94860418604423      -0.32741225516318      -0.07076548726048
H         0.03623759950646      -0.08302391282816       2.21489168258730
H        -0.51575940430790      -1.99732456034185      -1.53872524473376
H         2.40140348624696       0.51135475381481       2.14462001672034
H         3.37234256878412      -0.68339274501557       1.28510736156137
H         2.15335684106325      -1.26498638025528      -1.25901027146726
H        -1.45287047685932       1.49985270364925      -0.17600042169896
H        -2.70417272017464       1.54611439570159       1.09297295566819
H        -3.11141228367714       1.98285995538932      -0.58448626448527
H         3.44235938534453       0.85011452327547      -0.76337142145828
H         4.08008637217215       1.66883674712663       0.67814274615804
H         2.42879564155886       2.03261788019406       0.11001981724611
N         0.82509598752388      -2.54198849647684       4.93997240753122
S        -0.30518762103116      -3.19855128549661       4.02329766387836
S         1.73642811206916      -1.31450028332680       4.47329912463207
C         0.63956436629215      -4.25278524832969       2.75998028938764
C         2.51206692482793      -0.93015924175276       6.14508705197477
O        -1.04019406750179      -4.17009284631294       4.81196746724914
O        -1.03319843823313      -2.25731261664150       3.16283428874262
O         1.02039558152540      -0.07764169077201       4.10278699399810
O         2.86205514286075      -1.69732784883336       3.61533866785446
F        -0.22435930904204      -5.11809611006175       2.16856749210565
F         1.63333763588166      -4.95743470621849       3.33411784989639
F         1.17706341836089      -3.47431518623553       1.77620197594786
F         3.40235475106128       0.07794104425784       5.95159454673579
F         3.16873705414552      -1.99794884972250       6.63789869859275
F         1.58948866074074      -0.52326887807642       7.03999968553214
