44
C12H24F3NO3S optimized with DFTB in AMS.
N        -0.28400181515301       0.13839358692567      -0.42640177298282
C        -0.91115555124597       1.24887971978351       0.36343706513912
C        -1.20606473047971      -0.22787600396732      -1.55949042392735
C        -0.01410248632575      -1.03589407777240       0.47220292676677
C         0.99216378961403       0.65124787701018      -1.04989082237104
C        -2.31800584282831       0.92604463200990       0.85668685606968
C        -2.60744163368387      -0.59493052437608      -1.09874556069206
C        -3.23490049408609       0.54869827748067      -0.30534162199618
C         0.70381875069433      -2.21096234982347      -0.19240614859337
C         2.07942807423451       1.07775222442120      -0.06846034676588
C         0.90108519191086      -3.32381063766839       0.83518392132701
C         3.28883242331005       1.56919587056786      -0.86605685332718
H        -0.25989365219412       1.46667422084030       1.21193084884507
H        -0.94116721801681       2.12204821183990      -0.29398524142745
H        -1.24288850323393       0.63779560963647      -2.22427031867532
H        -0.74748162955190      -1.05321434888379      -2.10231231386010
H         0.57553624631114      -0.66342943429159       1.31404827286116
H        -0.97546841898134      -1.37531873535727       0.86226660210308
H         1.36781758519039      -0.14125426916924      -1.69701868859075
H         0.71030050144523       1.49229722626443      -1.68682633498154
H        -2.29116191013375       0.11860154975774       1.59357193761716
H        -2.69847062923568       1.81931928947827       1.35943592194307
H        -3.19894369982917      -0.79314432180861      -1.99585738186353
H        -2.59774884382713      -1.50990964975960      -0.49990490301003
H        -4.21260008740534       0.24899868193620       0.07914187985913
H        -3.37508716530706       1.41588236260206      -0.95818945875451
H         0.11971534504679      -2.59342985714068      -1.03083562283375
H         1.67563606357612      -1.90224038881553      -0.58055127063569
H         1.72846266773004       1.88192546992770       0.58493809312504
H         2.38600750289563       0.23732772513223       0.56003222467077
H         1.41083983368981      -4.16354611722543       0.36498708636485
H        -0.05954375604340      -3.67035903709067       1.21870961059905
H         1.50598331761190      -2.97392489295649       1.67289260426291
H         4.08052122717269       1.87512231653749      -0.18303947730658
H         3.01424656069984       2.42020575996130      -1.48929890208092
H         3.66610421944467       0.77568401846179      -1.50985786849021
S         0.86618584646701      -0.79959472381502      -4.27959305357753
O         0.23224269321101      -1.37897334549574      -5.43251132514829
O         1.01526788553208      -1.69917014926318      -3.13256594068297
O         0.38732510514717       0.52513891154035      -3.89675654685341
C         2.62578056636769      -0.48411787440952      -4.76372267739663
F         2.71852055058211       0.38990515670059      -5.75700565638388
F         3.24492462259686      -1.59976971294849      -5.12428091102532
F         3.27814787348045       0.02445787962272      -3.70775370401963
