37
C9H20F6NP optimized with ForceField in AMS.
C         2.70388421810750       0.36383746290716       1.55212836924815
C         1.64620095436204       1.29478513426704       0.97995727347578
H         1.36254288256493      -0.85878015868841      -0.89708192807679
H         0.41935355777348      -1.69324425779773       0.38055318958411
H         3.20142596494952      -1.38014022587044       0.34899587324685
H         2.21203650343657      -1.72623033370389       1.82524017078204
H         2.64213717867048       0.35285302797160       2.66255457031240
H         3.72432184984069       0.68743195938788       1.24938415417168
H         1.36345091999502       2.07828370811037       1.72097001703438
H         2.10519330278749       1.82257328015535       0.11011703034341
H        -1.21459338575259      -0.46119253797686       1.49941324479125
C        -0.43461235137810       0.30128840080471       1.71109241840185
H         0.11003397355923      -0.04175206782133       2.61854679301607
H        -0.94090744655939       1.26093042395290       1.95619671515289
C        -0.18990802202639       1.15076552152791      -0.59467657501175
H        -0.32367055560345       2.22918853033941      -0.34645501764477
H         0.46120822680576       1.13589487632249      -1.49859338732948
H        -2.31038707913820       0.72833261782682      -0.14382606134311
H        -2.98345936826769      -2.10926456950101      -2.62055713253058
C        -1.62840480196762      -0.78095683751841      -1.56651499363651
H        -0.81631728786301      -0.91023209567975      -2.31395960258387
H        -1.49745959008245      -1.52204094617268      -0.75359679380639
C        -2.96972547621708      -1.06630493607467      -2.23967345562059
H        -3.12954984995727      -0.37536307593771      -3.09483464655349
N         0.48701989423098       0.47001281666462       0.55705376951012
C         1.09311168691368      -0.83155225144759       0.18339252447833
C         2.37538065650504      -1.00610321346836       0.99340949154504
H        -3.79940655499110      -0.94349963185702      -1.51045723882904
C        -1.59806072279715       0.64074031009952      -0.99068580138982
H        -1.97240479150183       1.33585324158580      -1.77484074663067
P         4.84751611094428      -4.82967534304391       0.91525991768129
F         6.38409435822479      -5.59392087826538       0.98750587162583
F         4.62807842437244      -5.16469910365885       2.58551907486413
F         5.48936958315266      -3.30101130495757       1.36414364552048
F         3.24289559895842      -4.22279348083181       0.83888235361179
F         5.13483953525233      -4.36127148218000      -0.71202514785040
F         4.20496493299600      -6.34472019927019       0.42323176233938
