38
C10H19F6N2P optimized with ADF in AMS.
N         0.49755265374397      -1.64609039395877       0.19802559182864
N        -1.58355913597860      -1.07411862143353      -0.06261059129584
C         1.90914901686384      -1.63806703267788       0.61609895095010
C         2.73574279394887      -0.60903803752091      -0.15287477640100
C        -2.85123215318200      -0.33225427667619       0.02206620489962
C        -0.47477911131906      -0.84400956592079       0.65758412214384
C         2.49684074765221       0.83276088695074       0.29161498798696
C         0.00146980774037      -2.38691330511583      -0.85082290359031
C        -1.30270570890998      -2.02867891719637      -1.01389546435838
C        -2.84305453639126       0.93712723013315      -0.83040634866791
C         3.33471887200289       1.82038236652661      -0.51844345214818
C        -2.03157920100940       2.07704884563069      -0.22619365347276
H         1.93074180061196      -1.45003946581870       1.70118746690072
H         2.27846233151276      -2.66091027224985       0.44681221676191
H         2.52396672950081      -0.70885664340885      -1.23147223532856
H         3.79843704969541      -0.87212044700131      -0.00008839030914
H        -3.03538439952857      -0.11086806313609       1.08573076143299
H        -3.63168769041791      -1.03268280276816      -0.31214133308942
H        -0.37922801266311      -0.13217904824535       1.46581355955026
H         1.43367172271796       1.08431243118306       0.14654589268395
H         2.72591873332791       0.92681345368059       1.37122292135122
H         0.62772572514845      -3.05551228092847      -1.42712196281510
H        -2.02834595204935      -2.32556466623543      -1.75966996425196
H        -2.46051495790973       0.69056835119906      -1.83471775719793
H        -3.89776175693956       1.24329693559155      -0.94720910750899
H         3.06144008126923       1.75993224486208      -1.58208846177861
H         4.41048078400886       1.60318078004815      -0.41847213497604
H         3.16548659548390       2.85417783922317      -0.18084880341812
H        -0.97120973633174       1.80379142320644      -0.13305937996788
H        -2.42511704128717       2.37470132949815       0.76019966503792
H        -2.06403754068616       2.95547513951992      -0.88770801147558
P         0.30398271530623       0.32553696660587      -3.49748020132444
F         1.72553409642319       1.15834078275998      -3.48870489141892
F         0.39724047386231       0.09937745824577      -5.11191961527115
F         1.13965868802004      -1.09720728171866      -3.23164697021273
F        -1.13116912275068      -0.53291724815817      -3.44703738181998
F         0.20067715616028       0.51992403750789      -1.82817151474621
F        -0.54782583114718       1.72089567529644      -3.68829366468299
