39
C11H14F6N2O4S2 optimized with ForceField in AMS.
N         1.10912275629429      -0.01969393195208       0.53557895094427
C        -1.25413035821267       0.00100618908309      -0.13961136501298
C        -0.27201097919575      -0.02343176730531       1.03519124538865
C        -2.70652612692421      -0.00229603983773       0.34784336956650
C        -3.67767687081762       0.01979335382034      -0.82840903566078
C         1.75549144078055       1.16899548577025       0.33204121074580
C         1.72857897591113      -1.20402300266886       0.24171411586796
C         3.05902430451893       1.19032600585556      -0.17083645880297
C         3.02653531434199      -1.21683846541461      -0.27666220348349
C         3.69222893513317      -0.01032180907321      -0.48599505068610
H        -1.07705573254222      -0.89134643650066      -0.77944767439508
H        -1.07003053587694       0.91437030657960      -0.74718179396770
H        -0.45276973349006      -0.92752136231654       1.65914520632855
H        -0.44830521034209       0.85955562592054       1.68995724281189
H        -2.89732223391301      -0.91454084254286       0.95431738194275
H        -2.89164109047733       0.89096108666140       0.98362341334763
H        -4.72084456973447       0.01661531224378      -0.44865606145144
H        -3.52330920590835       0.93550757749719      -1.43827962809123
H        -3.52871383605134      -0.87646142120799      -1.46782520994538
H         1.26191142349331       2.10848795505383       0.55090620084579
H         1.21669695652874      -2.14600441154092       0.39868595390635
H         3.57313125150892       2.13074372041803      -0.31827156973452
H         3.51174521380356      -2.15466799801010      -0.51475332470331
H         4.69664305135126      -0.00543128051545      -0.89003536577105
N         3.75488933117861       3.50152533229123      -5.00183793587504
S         4.58276400041252       4.48203044553651      -6.02196700500523
S         2.74846405676319       4.07568974663504      -3.84169799375138
C         6.18167011945380       4.84166318085326      -5.32425698623136
C         1.06738098573813       3.96753403229648      -4.41683754463084
O         4.77572359740855       3.77928280680102      -7.33559499315384
O         3.83175812613017       5.76514944191531      -6.24629986114520
O         3.07814213258826       5.50386126044470      -3.50645979956263
O         2.88500689096968       3.22997170848120      -2.60967713501613
F         6.89503340920017       5.64876923290449      -6.19037621508888
F         6.87327056593791       3.66197569085916      -5.12479826034724
F         6.02805921159207       5.49181298785883      -4.11495121160509
F         0.21209998439113       4.45411028856621      -3.44605190759389
F         0.75507649830043       2.64739924688285      -4.68051793442211
F         0.92216849565561       4.71242774955642      -5.57123436336123
