39
C9H20F2N2O4S2 optimized with ForceField in AMS.
N        -0.05778862443272       0.24969770808759       0.15766053007051
C        -0.98303136793803       1.23896859293029      -0.48148166372273
C        -0.49787050636777      -1.14532885997588      -0.15274178769915
C         1.30119899429942       0.49589671702683      -0.43047193664283
C        -2.47296978951047       1.00966677744437      -0.16690633510590
C        -1.97312699355506      -1.41687974900426       0.18902916531350
C        -2.88647473612428      -0.41676861739833      -0.51026437002552
C        -0.01116091707336       0.47679939843785       1.62817210175085
C         2.44370387080461      -0.38505788535618       0.12936137394397
C         3.76735285918627      -0.06233892233711      -0.55935757690321
H        -0.87891650140909       1.20314801529966      -1.59122218790993
H        -0.71835686938198       2.27663650584706      -0.17381946372431
H         0.10581048892306      -1.88803936798718       0.41207394510006
H        -0.35273989088571      -1.36336254828775      -1.23593372593673
H         1.59241265033090       1.56087576961891      -0.27402466802335
H         1.27019440404953       0.34223780667010      -1.53422880668401
H        -3.08119734282376       1.71442674230642      -0.77398552568248
H        -2.69894911359284       1.23035455974890       0.89665801308579
H        -2.13381715724799      -1.37848660992819       1.28736277034412
H        -2.23921638149568      -2.44265447214996      -0.14607462222673
H        -3.93709451207553      -0.58619353775874      -0.19042422346497
H        -2.83158476961975      -0.56705738675277      -1.61108023074627
H         0.56197097620312      -0.32057620401558       2.14664226575764
H         0.45318152509393       1.45942042101469       1.86706127607422
H        -1.01718194147576       0.46791714579873       2.08972899662527
H         2.57952063649853      -0.20022014999739       1.21290472696953
H         2.23391012107099      -1.46153848290722      -0.03282122299718
H         3.69257342126228      -0.25341358144870      -1.65102604518641
H         4.04137391368169       1.00081721303086      -0.39060355481926
H         4.57072401165550      -0.70538085393473      -0.14161833386288
N         3.78571594212909      -2.66217442575000       5.43901234706285
S         5.35771505587787      -2.91964644500211       5.81228365566432
S         3.31598534528844      -1.31708653848277       4.63589085428047
F         5.77002022509845      -1.97241668477015       7.12907205381194
F         3.87840645163647      -1.39795765030266       3.06256574906931
O         5.56184672538974      -4.36753135695708       6.15709849150140
O         6.23371222685492      -2.54685415456668       4.64876067361930
O         3.89414722158313      -0.09769254808549       5.29785216000698
O         1.81619286029182      -1.22885333160535       4.63262860511182
