46
C12H14F18NP optimized with ForceField in AMS.
N         0.56267447810998      -0.00686191602373      -0.02431300777939
C        -0.32745901455511       1.06415442935685      -0.54994171745389
C        -0.33011957672707      -1.07272886209946       0.50775303643072
C        -1.74278189082511       0.75086407789062      -0.09953909584471
C        -1.74853023253531      -0.74564955928718       0.07697256417299
C         1.42882540379379       0.52514660714333       1.05336699936204
C         1.42055559529584      -0.54354533553646      -1.10709638261500
H        -0.32562518513339       1.09829288373927      -1.66471127532392
H        -0.03626161587357       2.08305572911064      -0.20454460873321
H        -0.31460142759642      -1.11272929080936       1.62235300254013
H        -0.05197054029942      -2.09233252754841       0.15406918201237
H        -2.49802047120568       1.07760649616663      -0.84727856056777
H        -1.94495874586898       1.24495019583896       0.87669750697913
H        -2.49651690030303      -1.06532395989924       0.83501922699001
H        -1.96876702908651      -1.23770772907834      -0.89633348484351
H         2.11023898510807       1.31441760723758       0.66331229720202
H         0.81866342153818       0.97435459601204       1.86934496745758
H         2.05256303161980      -0.28459366781942       1.49443084132677
H         0.80304963796492      -0.98917868385785      -1.91929362744829
H         2.04717724760194       0.26196415548763      -1.55184262495597
H         2.09960288457488      -1.33656651679459      -0.72066663389473
P         6.86116131648256       3.12391403069432       5.01424409341298
F         7.89052198660123       2.59919181366415       3.73745135843969
F         6.45201945786987       1.83165452525366       6.07939375587837
F         7.36603798589421       4.60067432247191       4.29064428929912
C         8.51925601650389       2.83410722694148       5.97732717674863
C         5.71582899386731       2.27828341744086       3.70235127779033
C         5.67730878664230       4.40011662583626       5.85458034227047
C         9.76322407342481       3.64703813050837       5.52711051484772
C         4.22758520111059       2.10778071465257       4.07279586691740
C         6.28295749199377       5.31974825170109       6.93326198295769
F         8.87253213782529       1.49418060207293       5.87234776396797
F         8.32530374188526       3.08960931242575       7.32016612173661
F         6.18449734973286       0.99601049657664       3.43007919509732
F         5.75953140298994       3.01542028110707       2.52708479530409
F         4.65599810765847       3.70993825923631       6.48198565398827
F         5.09444696662953       5.20732796468740       4.88695910871282
F        10.79359043172154       3.40954408346981       6.41992048219261
F         9.52730942366703       5.00481476446798       5.51387829781368
F        10.20016691225454       3.25574490784214       4.27420170275558
F         3.61829646448403       1.33342897104011       3.10256754564930
F         4.07449259500552       1.45852760278242       5.28328916427810
F         3.56920087444107       3.32097693108076       4.10340533491158
F         6.54400373065802       4.61261467340712       8.09132793279784
F         5.36213963893499       6.30339402804067       7.24882691012077
F         7.43085536452358       5.94415890936875       6.49877867479772
