67
C19H28F18NP optimized with ADF in AMS.
N        -1.91217234851127      -0.89381688937501       0.51442340925027
C        -3.04020911078584      -0.02513950919142      -0.00617756737808
C        -2.14041240595399      -2.33175546483135       0.05918901516395
C        -0.62878244418127      -0.36931292517755      -0.10272425695450
C        -1.83704208029487      -0.86316730070424       2.03465000515917
C        -4.41941578883577      -0.52600483753043       0.38584222074169
C        -3.51317275215440      -2.86132226937230       0.43247840231055
C        -4.63252630555155      -1.96432935429705      -0.08518524771413
C         0.64950193884184      -1.07282555180535       0.31168340473398
C        -1.47235911394307       0.47870662751443       2.63280096795244
C         1.85051035282316      -0.32386108398856      -0.27313061374301
C         3.17603081514248      -1.01017947555445       0.04537989380217
C         4.39222199106924      -0.22132342876955      -0.43058138246587
C         5.70298134126472      -0.93555467102284      -0.11048724122128
H        -2.93380379810883      -0.03296210043065      -1.10344949299976
H        -2.85018139166428       0.99776851634273       0.34762826496910
H        -1.35315885083395      -2.94524172467621       0.50974635729634
H        -2.00943126345495      -2.31494628788431      -1.03548289131578
H        -0.58610432886061       0.70158011515402       0.15032501323107
H        -0.77329959889788      -0.44536522436422      -1.19226992414121
H        -2.81562720608741      -1.19433665721940       2.39600152742008
H        -1.11989635688184      -1.64416026866482       2.31533062616379
H        -5.15485568854818       0.15516866743497      -0.07403071529312
H        -4.56453753688079      -0.44892202956520       1.47675983591902
H        -3.58070690822108      -3.00366331651165       1.52151953465638
H        -3.57820112523779      -3.87520927695033       0.00595748961001
H        -5.61244653718559      -2.33628558388848       0.25369205133767
H        -4.64357037678498      -1.98357532705527      -1.19118321337748
H         0.74976672834451      -1.10881969694892       1.40750932506786
H         0.65488061659514      -2.11776263773624      -0.03356893433277
H        -0.45895161670018       0.80549787200215       2.36083678087755
H        -2.18741223076335       1.27602371039298       2.38149065102792
H        -1.49177159667828       0.35943092874873       3.72720936565142
H         1.86599790299120       0.70899828525530       0.12526551492961
H         1.73933724576002      -0.23329928443181      -1.37030061845941
H         3.18567148356019      -2.01266785579035      -0.41520191073632
H         3.24879930905557      -1.17702629235836       1.13610749465352
H         4.31480174840552      -0.05273031204233      -1.52081679332067
H         4.38718077824429       0.77940393099219       0.04015760978051
H         5.73538908088101      -1.92642992862319      -0.59107205824268
H         6.57476179107026      -0.36093859107330      -0.45720973182399
H         5.80839532051961      -1.09103880101700       0.97517015950494
P        -0.42144879019621      -5.11966476157566       2.71701932643136
F        -1.77869183386182      -4.96228661239518       1.73274068484311
F         0.02438260310713      -3.49946155839908       2.44882850488626
F        -0.84294881659470      -6.68805309601794       3.01530335040932
C        -1.64043286079705      -4.44659333960541       4.12163007615033
C         0.51286303701278      -5.58564712463799       0.96036749480895
C         1.25138579789634      -5.44168904437321       3.78789694257312
C        -2.75301648888690      -5.39076753242670       4.67084898462273
C         2.00849410577786      -5.32132325989324       0.57401004208138
C         1.40026946004645      -5.48611282024371       5.34300043007291
F        -2.34909535421131      -3.35083292014732       3.62435233964068
F        -0.97185607977926      -3.96092426648913       5.21845560813235
F        -0.13517837554750      -4.84527521322948      -0.03818276417293
F         0.28941985106800      -6.90632393835698       0.67328390909698
F         2.22203777479039      -4.53977762876121       3.39352825404638
F         1.66507586934718      -6.69606941316410       3.38897749140712
F        -3.53864293287498      -4.68376035679181       5.54078429463041
F        -2.24358571677299      -6.44111667536748       5.34272999324440
F        -3.55534127125686      -5.84961480466586       3.68276777740026
F         2.16105143355233      -5.58383914905768      -0.76153417385649
F         2.33657681169266      -4.01614068725484       0.75917570148915
F         2.89809165905727      -6.09062735531687       1.22344433814820
F         1.45569433520088      -4.24409881829985       5.88280385273573
F         2.57936120937734      -6.09946618929929       5.64943834090100
F         0.40993161928615      -6.18929319701532       5.93213896768632
