31
C9H20ClN optimized with DFTB in AMS.
N        -0.21668993813930      -0.07319954622547       0.08557667764402
C        -0.62722638323288      -1.25241480172339      -0.74787113151947
C        -1.36565616193198       0.09484184915393       1.03131508929395
C        -2.12488288789789      -1.08019140649510      -0.96616462220032
C        -2.61686511621791      -0.22554037989711       0.21387820554439
C         1.03587349804395      -0.36508105658668       0.85574526785862
C        -0.08100649568803       1.13769638115904      -0.80128726676774
C         2.26464171081700      -0.62675635037727      -0.01466178769098
C         0.46372593181106       2.37275666585561      -0.10409994889064
C         3.46509462939823      -0.92442897459229       0.88021659275062
H        -0.41496464529876      -2.15378883337232      -0.16846765804331
H        -0.04816268985998      -1.25343447628409      -1.67954837807610
H        -1.36262377983967       1.10265440353255       1.44553497664196
H        -1.23728117993687      -0.62478440661063       1.84318785059951
H        -2.61694639754830      -2.05379300698006      -0.98933728723654
H        -2.32207110790908      -0.57803520763859      -1.91499889254504
H        -3.09481203623377       0.69013349521085      -0.13975569271927
H        -3.33651236039308      -0.76616323922729       0.83106921959568
H         0.82583371265472      -1.24666338697695       1.46920431562371
H         1.20742633808239       0.48118961956591       1.52633532294034
H         0.57146830720199       0.84686932623945      -1.63538116148864
H        -1.07623474037297       1.34401582669290      -1.19896151740559
H         2.08071721442141      -1.47314058645349      -0.67839611428931
H         2.48310083276236       0.23913697829703      -0.64118632409760
H        -0.10748848614087       2.63660257535181       0.78624401321423
H         1.51048392820281       2.25234160024549       0.16943606825807
H         0.39460323038000       3.19957650358944      -0.81079074856758
H         3.69536609364976      -0.06925851356260       1.51759429724767
H         3.26885014370501      -1.79003294078421       1.51475898549894
H         4.33377195105282      -1.13740302925762       0.25887173051801
Cl        1.38909545975785      -0.51646611904886      -3.12141408269160
