34
C8H15F2N3O4S2 optimized with ADF in AMS.
H         0.61246331895214      -1.33969128319423      -4.41236447288235
H         0.52095923699772      -2.31043248389536      -2.90587030567596
H         2.11118578648838      -2.03386563307163      -3.65109852678348
C         1.12244046543622      -1.59344657976908      -3.47429190249256
H         2.39546609058767       2.58666863716400      -1.87963116012529
H         2.35031988456119       0.86602310398505      -4.07137364861240
H         0.46684775518787      -1.01449998360258      -0.78451858563130
N         1.28542167080186      -0.38415673220119      -2.67370709807956
C         0.92663513467406      -0.24736658238962      -1.39104710824138
N         1.30627622753776       0.96670504149157      -0.97408529931261
C         1.94419480205556       1.61171518495951      -2.01052161863523
C         1.93120571565388       0.76485720082132      -3.07838161196491
C         1.16083205096032       1.51036369487677       0.39044705487052
H         2.14559003880271       1.92905495809247       0.64775990606492
H         0.42580012966557       2.33058727522848       0.33970802043399
C         0.75433292410084       0.45670650793557       1.40553075716110
H         1.42317548973139      -0.41446062430311       1.30970777659131
H        -0.28436851772010       0.12393068194802       1.22200091516180
C         0.87848035973254       1.00101230162323       2.82893110803789
H         1.92651772085544       1.30810420095041       2.98725008939107
H         0.24900838986932       1.90242474985113       2.94622846695695
C         0.49293837837228      -0.04800203557655       3.86738728656892
H         1.12947072501281      -0.94102786177641       3.76420717053958
H        -0.55717873714824      -0.36099695920544       3.74895934767209
H         0.61833847532065       0.33978974488399       4.88893256127455
N         3.94395623734441      -0.74073976294801      -0.88855475065761
S         4.51192320744430       0.23401348098209       0.26335641761603
S         3.80077721985861      -2.31473465541815      -0.60434795966035
F         6.11219363194833      -0.10527371876119       0.31380855424704
F         2.36329092499049      -2.38537977179063       0.28903711177447
O         4.43918164073944       1.58910797715356      -0.26577101413488
O         4.02805114877625      -0.03106759850708       1.60805083133729
O         4.77718719544413      -2.92131616435955       0.27204988831811
O         3.40876843126420      -2.94186467337733      -1.85697751452778
