47
C13H28BF4N optimized with ADF in AMS.
N        -0.28271954633316       0.83049994523969      -0.03450706768705
C        -1.51641160366466       0.54317956997174      -0.86217017936576
C        -0.54296917730680       2.05377013631629       0.84016957039613
C         0.84316360179483       1.14829282756076      -1.00328962738706
C         0.08541523276542      -0.34633902879637       0.85378784941487
C        -2.76605002076171       0.35255630495591      -0.01920129313623
C        -1.79495948602167       1.91634406002603       1.68861062846572
C        -3.02748767243215       1.58173679906040       0.85212720457940
C         2.19309764594571       1.43604541415522      -0.37339068335419
C         0.42070774325473      -1.63860559611463       0.13458632613963
C         3.23821902459784       1.66748483239702      -1.46727530857514
C         0.85534618889864      -2.67800070061870       1.17528994649186
C         4.60176080620782       2.01313063119536      -0.87356661448015
C         1.29692457102139      -3.98809938207699       0.53217194262584
H        -1.29161275460195      -0.33609071376048      -1.48143358351576
H        -1.63711214707851       1.41265991771394      -1.52947241989517
H        -0.63468872846942       2.89724422509340       0.13493400065801
H         0.34298569018725       2.19253015415464       1.47922635109070
H         0.49247308910800       2.01611470516360      -1.58541143774019
H         0.90432517922598       0.29067414557573      -1.69078475098029
H        -0.74934828848078      -0.49112357489052       1.54796103899362
H         0.93563649034397      -0.02284634334028       1.46555697561220
H        -2.67330787208012      -0.55293312612361       0.60331511637114
H        -3.60535005065325       0.17086175811934      -0.71126022867473
H        -1.92215706289382       2.87841089777987       2.21212762711673
H        -1.61910693684239       1.17559865104356       2.48378427397017
H        -3.27511821885502       2.43750891402677       0.19640842838381
H        -3.90170330664787       1.41210953363226       1.50033559184953
H         2.51819695228348       0.60559726569163       0.27245162702110
H         2.14161335984127       2.31702452483180       0.28399649235234
H         1.25307718433888      -1.49056259622945      -0.57487118219339
H        -0.43740729081677      -2.03205805402422      -0.43953667372758
H         2.90596371355025       2.48236627847181      -2.13703740629855
H         3.32201387857156       0.76109460393297      -2.09509943105975
H         0.02037175662200      -2.86214309351690       1.87420642051955
H         1.67148400151874      -2.24926684559425       1.78090922367907
H         4.94761701927041       1.21348736662063      -0.20042398087340
H         4.54514493656351       2.93892962869526      -0.28067011106898
H         5.35702680464050       2.15344768175625      -1.66059725264705
H         2.14804922594702      -3.82493797883324      -0.14872868157544
H         0.48126660365794      -4.44572516271691      -0.05116078912844
H         1.61479640996722      -4.71456854103113       1.29485436352077
B         1.81749350705711       1.07087549548786       3.55908043917374
F         0.43163384583737       0.75360341491661       3.73239259288035
F         1.89842650460930       2.26514440053826       2.75361753309377
F         2.43037721758112       0.00237541889085       2.80826642554457
F         2.45827300343081       1.25061088785219       4.78138508951968
