33
C9H17BF4N2 optimized with DFTB in AMS.
N         1.51673728814035       0.54411687595641       0.56505514181997
N         0.00493324642413       0.51740305675596      -0.96618316123596
C         2.53455756391222       0.10783065390837       1.51415583225573
C        -0.93904260600390       0.02540849533725      -1.96196415906969
C         0.72400931408734      -0.25011902568399      -0.15271851733805
C         3.86403318978995      -0.18472859780526       0.80336024570298
C        -2.37186689565830       0.10450273717121      -1.43581399138214
C         1.33333479182181       1.84049935420936       0.16076786991428
C         0.37609752960757       1.82176872502539      -0.80229158868931
C         3.87795306826090      -1.55302874551813       0.12959351974748
C        -2.59924902280087      -0.80706137533547      -0.23106943115529
H         2.15994471596689      -0.78123684900955       2.03034996681139
H         2.66143246149741       0.91234241041016       2.24373292751294
H        -0.65032624134654      -1.00025847654532      -2.20246423219129
H        -0.81722611289028       0.64093488873196      -2.85556350137821
H         0.67104484050840      -1.32163427143826      -0.08888799385192
H         4.04343349825506       0.59179434871866       0.05581307219071
H         4.65645770961340      -0.13285276247890       1.55648939209424
H        -2.60220552823223       1.13951066176888      -1.16424092153788
H        -3.04223128525265      -0.18884832317192      -2.24817796986887
H         1.89474753757452       2.65490056375269       0.58317071298228
H        -0.04909620345778       2.61478842216242      -1.39137787761005
H         3.67823137805007      -2.34408626149069       0.85469868500693
H         4.85714739316373      -1.72502532843230      -0.31594825457744
H         3.13135538132745      -1.59659738891211      -0.66106052906060
H        -1.95760154932436      -0.51169850340623       0.60062550029135
H        -2.37886234550753      -1.84341444045322      -0.48941394576695
H        -3.63737183633549      -0.74222959370927       0.09357652488954
B         2.27868046001596      -0.19201447689623      -2.87786810519939
F         2.89646377191391       0.58290513581725      -1.87242495635521
F         3.19346542684970      -0.66978847110334      -3.77484815169797
F         1.28011345884918       0.58079261006465      -3.49009956318380
F         1.62730752027997      -1.29074675760045      -2.21077611926982
