42
C10H18F6N2O4S2 optimized with ForceField in AMS.
N        -0.36588563782838       0.35244236757705       0.03542675566082
C        -1.41254855489842       0.60156016106218      -0.98979946917999
C        -0.81878177141516      -0.86376093910765       0.77172386744230
C        -2.69481118114169      -0.02680642488514      -0.48592320648033
C        -2.21940183045145      -1.22900054894951       0.28891771920677
C         0.94872700398883       0.13433059945392      -0.64162875075823
C        -0.30115601649808       1.52366016967777       0.94921521894211
C         2.14104415360237      -0.04193108098112       0.32741157669500
C         3.36747390508983      -0.58428907036568      -0.40173406661077
H        -1.16253004059804       0.11226960351299      -1.96066425075868
H        -1.56334611258891       1.68485510092050      -1.20494827730993
H        -0.84633286129478      -0.70330121516032       1.87447322461261
H        -0.15296227413145      -1.73994890885070       0.60113633241769
H        -3.36963560872700      -0.31587290833749      -1.32085270248848
H        -3.22168426765366       0.67800070046379       0.19426303260846
H        -2.90216276009210      -1.46109990908722       1.13472862362189
H        -2.16549590408130      -2.10809779259082      -0.39196258256611
H         1.17626229901956       0.99432192975257      -1.31322445292504
H         0.88598712840079      -0.76763902749640      -1.29439820381361
H         0.08615107304637       2.42173676325357       0.41766888536572
H        -1.30686303905042       1.77123378143319       1.35657923459256
H         0.35904241913995       1.32438635867105       1.82090713307276
H         2.41122327239295       0.93957205865165       0.77238671439079
H         1.88574622765976      -0.73951511557666       1.15172238441835
H         4.22024059560618      -0.65456798618182       0.30598083885081
H         3.15864287533279      -1.59827541567477      -0.80478147247146
H         3.65090423471647       0.09146464086779      -1.23667891185659
N         1.60019053726798      -5.77041411858786       2.59180215645601
S         0.69014340325770      -5.16460290527895       3.81269025007643
S         3.01579622049235      -6.55501108438024       2.85089259790738
C         1.18275745028505      -3.48417415241266       4.14111229189729
C         2.71881162779947      -8.31104269028573       2.88966047494391
O        -0.75480323499103      -5.17587650657369       3.40259399166803
O         0.86581879922252      -5.98754593693189       5.05887145291046
O         3.62982234845138      -6.12616138781178       4.15474985268488
O         3.96171182906050      -6.24824180643606       1.72511228510619
F         0.37886835845142      -2.95351690105883       5.13197940135980
F         1.04927190918281      -2.73076203173183       2.99075213827119
F         2.50014645913551      -3.45396231777969       4.55685452926938
F         3.91270525543517      -8.97569354190917       3.09683394686503
F         2.17267151627358      -8.71462889393403       1.68590283296620
F         1.84270721583056      -8.61460135584034       3.91443976513838
