46
C12H23F2N3O4S2 optimized with DFTB in AMS.
N        -0.72973748246254       2.21898790696128      -0.15932384258606
N        -2.58887726397195       1.14830267941882      -0.00263411061185
C         0.53811801475747       2.72325661965855      -0.67368668037319
C         1.69946582601768       1.91848983189488      -0.08791745992739
C        -3.70228639937681       0.25472440706863      -0.30278498119902
C         1.64204211678799       0.44554667270546      -0.50394681801773
C        -3.48830481449615      -1.09767008993768       0.37868530172946
C        -1.55644794189721       1.39964800810595      -0.80482821284585
C        -1.25045648826490       2.50966715003620       1.07074874425483
C        -2.42413519393280       1.83236206946301       1.17096115223887
C         2.80215388600140      -0.35353878847690       0.09732554014820
C        -2.25110032031158      -1.82422933067862      -0.15896933723813
C         2.71585601178973      -1.82831833233805      -0.29131169630981
C        -2.06508316842198      -3.18181784881088       0.51513026081041
H         0.61159053991216       3.77669749251018      -0.39375166139458
H         0.51057149734714       2.64511685599866      -1.76247747910530
H         2.63062572004995       2.36757200934650      -0.44393878705715
H         1.68124109678605       1.99730852631605       1.00357268594408
H        -4.61836590738158       0.73139985827132       0.05320084729172
H        -3.76054987793789       0.14380309543453      -1.38728414386707
H         1.67301378485342       0.37441709768499      -1.59639763934825
H         0.69335657583463       0.01026600798069      -0.16900743994297
H        -4.37935531016831      -1.70547869204245       0.19880514444856
H        -3.39219622993830      -0.94988376911110       1.45889546457441
H        -1.44112859568092       1.05169364218456      -1.81660490025629
H        -0.76346340157365       3.18537278758065       1.75134408269619
H        -3.15370479124606       1.79436873801524       1.96052614158758
H         2.77913804963655      -0.26169331349190       1.18847602185471
H         3.75175208041052       0.06268992408878      -0.25414631510133
H        -2.35236615335535      -1.96215826399128      -1.24046822636195
H        -1.36167748902625      -1.20855423322288       0.01728144814610
H         2.75732014594513      -1.94113704536597      -1.37535130412778
H         1.78201586575725      -2.26409945697191       0.06750839058347
H         3.54755955271162      -2.37909122446246       0.14779337461268
H        -1.94602447889668      -3.06027267139909       1.59253635617424
H        -1.17616035989815      -3.67364326424793       0.12014163746989
H        -2.92840815633170      -3.82177596808207       0.33040724701854
N        -3.47110436993340       3.85707593636151      -1.13919638787450
S        -2.15204212861124       4.54992728182439      -1.68744385510088
S        -4.39868747435317       3.12398772087211      -2.19804283886660
F        -2.64283825841485       5.84310895726906      -2.50371820922022
F        -3.44070003628154       1.89533533114660      -2.76092206571607
O        -1.45196138150289       5.07325600737292      -0.55136793861186
O        -1.39131978307785       3.78600082090014      -2.63592634017222
O        -4.75699698479014       3.83976972060288      -3.37249013738934
O        -5.40487218416284       2.42604794415666      -1.45941520726054
