37
C9H20F6NP optimized with ADF in AMS.
C         2.91302291776442       0.11802440878078       1.58682948273069
C         2.14361080190311       1.09358025470974       0.70210920629958
H         1.46577446186283      -1.16293284929113      -0.69580019529041
H         0.22539992295015      -1.61448230740358       0.53386910573212
H         2.98478624340701      -1.96585555656859       0.87983040212561
H         1.90301807861988      -1.71263515494902       2.27054715243401
H         2.85516235049097       0.39360747059419       2.65081549179230
H         3.97115953259976       0.12826282991012       1.29117221280981
H         1.98645001302718       2.09299730330657       1.13206042002245
H         2.60699101478772       1.17382540849058      -0.29157216271776
H        -1.00632979164806       0.09328497601638       1.57208732623036
C        -0.07898627140992       0.66808026190330       1.67808898440310
H         0.46355349087746       0.33262487836773       2.56985175265156
H        -0.30651575685625       1.73942071683861       1.76018367988641
C         0.15364770070228       1.05325248855808      -0.76921897608979
H         0.11544182601329       2.13472513089526      -0.55867343819945
H         0.88380499712567       0.88539863192990      -1.57461347897681
H        -1.94451524741400       0.61215749888340      -0.33447852992418
H        -2.67380203368473      -2.05802361049620      -2.98586061648655
C        -1.28584756331744      -0.82807459780624      -1.84279712260027
H        -0.47922118452943      -0.89342544210031      -2.59212782790932
H        -1.09662245494329      -1.63122134258590      -1.11232728957519
C        -2.63972282119582      -1.06894911814142      -2.50630714429102
H        -2.83434494385833      -0.31390136819892      -3.28456933222302
N         0.78053800345099       0.44985052588110       0.47889095294719
C         1.12872970414106      -1.02401777447180       0.33984843610061
C         2.26704730677629      -1.26826847209789       1.33195641545954
H        -3.46264810971285      -1.01900734123663      -1.77443434830283
C        -1.22501040509954       0.54730621472036      -1.17072503594040
H        -1.57833695673589       1.29354175801012      -1.90781456990004
P         3.50657783790307      -0.28937635812193      -2.90403206136862
F         5.02652383274924       0.30374611616734      -2.98369200128140
F         4.00204107918938      -1.78912408593615      -3.32572821444404
F         3.74082352200934      -0.67187527653048      -1.28076494441684
F         1.92421200051957      -0.86218746446933      -2.74800163506062
F         2.94063362648669       1.21987897576449      -2.40586091597465
F         3.20305872804817       0.11139937567747      -4.45858533055213
