35
C9H18F3NO3S optimized with ADF in AMS.
N         0.69731588356960       0.32334550634534      -0.19506423711723
C         0.37459993347357       0.74638445456810      -1.61791745566146
C         0.70912216545150      -1.19625174969792      -0.29450938789764
C        -0.69155688351864      -0.23546357181650      -2.08200698876954
C        -0.36338517368396      -1.55189434655288      -1.33278605672685
C         2.04727270173166       0.88402104697561       0.20782283240859
C        -0.37637354557435       0.76828143333734       0.73863850342788
C         2.57964043799847       0.37809014702512       1.53707371076584
C         4.01988535741551       0.86467478949434       1.71256032805252
H         1.30754907925356       0.59011014214610      -2.18092111320186
H         0.08020002228159       1.80506219444060      -1.61622020771449
H         0.52765761600554      -1.61008260201873       0.70520268989298
H         1.72193104192503      -1.47264294462128      -0.62267918751818
H        -0.63313997694734      -0.35776860862451      -3.17253252736527
H        -1.70603229003837       0.12019049274253      -1.84362007721244
H        -1.26423208373452      -1.97458614576512      -0.86456390479496
H         0.04898291173372      -2.30621310293431      -2.01598507094481
H         1.93334438346377       1.98077424660498       0.20696152200822
H         2.72911754089089       0.58828205752688      -0.60196325011995
H        -0.41887882297982       1.86543870801650       0.73673788804208
H        -1.33545532630503       0.35349906322188       0.40558046167904
H        -0.14682728681617       0.40122466821956       1.74534267403313
H         1.95747082027697       0.72587466830237       2.37954517572764
H         2.58586944152899      -0.72350190872603       1.53260191651517
H         4.42135670620179       0.54078085200974       2.68290453482421
H         4.65375334293209       0.43918400803901       0.92012821440359
H         4.08183306738515       1.96377751873991       1.66773542970273
S         3.97986070014497      -1.42356823126396      -2.11733372719586
O         3.80744265170426      -1.64125500743022      -0.65964081050269
O         5.34086195392416      -1.16521778733095      -2.57726766406138
O         2.91443770510475      -0.56832201873859      -2.70179606320422
C         3.56232385464131      -3.11416486086804      -2.82791937976334
F         2.30045526579590      -3.50611617557437      -2.44297777518468
F         4.42889820264216      -4.06276592048798      -2.39517198232624
F         3.58477975092132      -3.10693373860455      -4.18438656010053
