31
C7H9F6N3O4S2 optimized with ADF in AMS.
N         1.12264554976886      -1.02322471356999      -0.85329786914319
N        -0.73203835005684       0.02207905393496      -0.44156198459833
C        -0.14466606244467      -1.18140195207086      -0.45575464166933
C         1.33994296503167       0.30832713652802      -1.14038344415129
C         0.17716809822770       0.96727208716173      -0.87593946533547
C         2.05078520760195      -2.11220437817132      -1.13526186513728
C        -2.14806313174950       0.25872410360921      -0.17473709777885
H        -0.65190348476416      -2.12040525516859      -0.25972097992604
H         2.28706113192514       0.66113953916311      -1.52812142471821
H        -0.08881647484896       2.01149837843201      -0.97878217531201
H         1.69383772412276      -3.01539844051002      -0.62956222946731
H         2.07181799806005      -2.26746536706837      -2.22259037515580
H         3.04289527577656      -1.84459709236422      -0.75154951433791
H        -2.24683176403532       1.12493585197125       0.49138346203136
H        -2.66828792463846       0.43004410542957      -1.12704262818291
H        -2.56815675969651      -0.63450376953556       0.29920145412256
N        -0.96844450229488      -2.08745634308793      -2.93099646748818
S        -2.50658008706943      -2.44762987782948      -2.62893479195279
S        -0.36485806806538      -1.51471250749248      -4.31383048342217
C        -2.98603207895662      -3.99872831918653      -3.60637192783035
C        -1.16280103048528       0.18639744371168      -4.63981894390079
O        -2.52357862245654      -2.89923482458690      -1.23055341914398
O        -3.47173347007096      -1.43903003065862      -3.05667049287142
O        -0.69856589325308      -2.28859336836977      -5.49942195550445
O         1.02800210610367      -1.17768830203630      -4.01488167180122
F        -4.08904128741103      -4.53402723239393      -3.02857220170033
F        -1.99147379672256      -4.91356392160767      -3.57452459684074
F        -3.27111148337693      -3.69415955469781      -4.88447268935218
F        -2.34912934771751       0.07291413421071      -5.25679973867041
F        -0.32905874906815       0.90497335238928      -5.43092259875042
F        -1.34031230263557       0.88497486526483      -3.47940527791055
