38
C10H19F6N2P optimized with ForceField in AMS.
N         1.90661762727116      -0.94966259989202      -0.22026024196004
N         3.12674971632047       0.90571581763534      -0.11445226719004
C        -0.38060825478319      -1.87749410449352      -0.07616014810973
C        -1.03294694194686      -0.51086824220073      -0.33189407673390
C         1.00508972939301      -1.98407173599860      -0.72532948138377
C        -2.44538022461161      -0.45694401790807       0.25926609718307
C        -3.08425224923546       0.91767429680271       0.03171082475876
C         2.36115706922210       0.12248591500987      -0.89775147902479
C         2.40602594954307      -0.84351164236841       1.02798946355986
C        -4.49826145549951       0.96750118528511       0.60290739820128
C         3.16290309875649       0.30954915024169       1.09330586279943
C         3.75888835410071       2.16622682497505      -0.48188388550283
H        -0.29074779751933      -2.05187650792243       1.01809740093955
H        -1.02660600142069      -2.67787297815226      -0.49896690452479
H        -1.08301341848371      -0.32245058820397      -1.42696397123370
H        -0.41647337551295       0.28774575757208       0.13594936050888
H         0.90164329951460      -1.89444852138186      -1.82862038334521
H         1.43831005251668      -2.98477428180219      -0.51110018225123
H        -3.07414663228290      -1.24006431489242      -0.21912608125152
H        -2.39493128509285      -0.66142040437292       1.35178305491038
H        -2.46936148109629       1.70276199326589       0.52391747010481
H        -3.12768219013143       1.13628303804437      -1.05770229081032
H         2.11881702208612       0.33926967063098      -1.92940353091400
H         2.22266505500866      -1.54303792003900       1.83315975589883
H         3.68683783600612       0.69121043040040       1.95993912824701
H        -4.47937766084940       0.77402217145961       1.69662010720373
H        -4.93532893337970       1.97288258494198       0.42723104605734
H        -5.14077661975260       0.20896420819079       0.10723162305272
H         4.85887844651563       2.08207772991457      -0.35943056914253
H         3.53282845218542       2.42157255321476      -1.53950206361992
H         3.37810916383789       2.97924322977743       0.17142893074514
P         0.30130224625569       0.76590288376991      -5.13508155017797
F         0.46168655800661       2.05162587997676      -6.26258868209108
F        -0.78159525904603       1.70800776635687      -4.19140121102403
F        -1.01473742119607       0.15610321177899      -6.05519069062757
F         0.13623707345522      -0.52485153186236      -4.01481689134799
F         1.39045790970852      -0.19187986364870      -6.05542365990705
F         1.62683927593642       1.40415802949428      -4.24968286739677
