49
C13H28F6NP optimized with ForceField in AMS.
N        -0.69858785417646       0.53050923187503      -0.20303482681985
C        -1.66874399449117       0.27116886861481      -1.31737256402985
C        -1.26231277306843       1.60256535716893       0.68252413894872
C         0.55953640943116       1.04811069350389      -0.84680323530429
C        -0.43754810907422      -0.70659125019389       0.61472281895585
C        -3.08589665967063      -0.09270329637974      -0.84644522451230
C        -2.68448148758283       1.30302525008060       1.20333388166256
C        -3.64664528405198       1.00026756541358       0.05817169285796
C         1.75628635896852       1.30090520686060       0.10478692058791
C         0.23395007582544      -1.88259394263445      -0.13583890410181
C         2.96162488298155       1.84449057279815      -0.67628704561628
C         0.45286511682313      -3.06868731767482       0.81278637310380
C         4.16855586143736       2.05509676580536       0.23520220456528
C         1.11321588324361      -4.24242230846412       0.09468988829355
H        -1.30496795187122      -0.52346974973467      -2.00093462713222
H        -1.76710879236324       1.17928512001672      -1.95710398321285
H        -1.30427261620407       2.57529996355046       0.14016046791249
H        -0.61827509967931       1.76357496637242       1.57404472704259
H         0.34673569297963       2.00749196394431      -1.37406155137596
H         0.89645237792243       0.35440889362488      -1.64988412357460
H        -1.37697154437786      -1.09932870765085       1.05035122084175
H         0.18598566699433      -0.45498382204055       1.50131660971444
H        -3.09879861172762      -1.07335387164542      -0.32824649998894
H        -3.74377985812375      -0.19215657446955      -1.73685146314468
H        -3.06237546719401       2.18828990402599       1.75673714775833
H        -2.67497105406220       0.46276653243730       1.92755973696207
H        -3.81897742720446       1.92517760699699      -0.53630222837177
H        -4.62477621863588       0.67256108387742       0.47226053904525
H         2.06795853303238       0.35794899962672       0.59797686137189
H         1.48353954284967       2.04177312009510       0.88329146518735
H         1.22013847567090      -1.57835513104209      -0.54108821977464
H        -0.40903732136009      -2.22692384497949      -0.97039799224811
H         2.69561855378575       2.81470077662796      -1.14976172923346
H         3.24306676063839       1.12820271101033      -1.47914300893264
H        -0.52431434334303      -3.40516975468492       1.22295023116564
H         1.10130522469974      -2.75583438976140       1.66002956974773
H         4.47731555447295       1.09248826265791       0.69637543912271
H         3.92597894327288       2.78477272452697       1.03697690182147
H         5.01989272273066       2.45071537268147      -0.35814325448695
H         2.11024038067217      -3.94559561027509      -0.29537895360111
H         0.47716826073033      -4.58811083560611      -0.74822151487508
H         1.24688269359674      -5.08495349147894       0.80562052213850
P        -1.79235356934550       5.40255125751426       3.76475344276594
F        -3.07136132479347       4.55412103103109       4.53753474036221
F        -0.68686913581083       4.30279183762788       4.48628891194804
F        -1.90415111595971       4.39342730297948       2.38159370456232
F        -0.50080537031004       6.21741676202344       2.97816784423017
F        -2.95022724562079       6.45096769469526       3.04937738225677
F        -1.62790334725690       6.49031879775080       5.08435802330410
