43
C11H24F6NP optimized with ForceField in AMS.
N        -0.22616457565012       0.31037561693455      -0.16669969433559
C        -0.91860559161979       1.28996442115029       0.73420862052331
C        -1.12614384390222       0.00950683359791      -1.32751428032855
C         0.11923114946819      -0.92984853583704       0.61325376856061
C         1.00171556523802       0.96684914387408      -0.73600729080986
C        -2.32585676452731       0.84672783633544       1.18477632287401
C        -2.51688981730690      -0.50614415330245      -0.92464502979658
C        -3.21247558762525       0.49391809452843      -0.00630431294146
C         0.91022736757688      -2.01056459875725      -0.16190093923833
C         2.12739765359143       1.28479135575453       0.27917658076696
C         1.21930154848264      -3.20307292629325       0.73920493803972
C         3.28366243573888       2.01500708870659      -0.39997825448538
H        -0.32885670354707       1.46849019376755       1.65882642368315
H        -1.02726035536138       2.27682440254572       0.22798155460178
H        -1.28816995420514       0.93166978324841      -1.93381520573664
H        -0.66362847976890      -0.71697305932889      -2.02722452970251
H         0.69519279667885      -0.66112016582893       1.52575426995962
H        -0.79338617568812      -1.41980076613204       1.00496894088840
H         1.43556284359176       0.34271900841134      -1.54853782862302
H         0.72104063596376       1.92411141446230      -1.23393030359441
H        -2.26613802966550      -0.01268114046455       1.88462804385234
H        -2.80135886284051       1.68036884613276       1.74594354291938
H        -3.13201324490182      -0.63539375432143      -1.84145494826399
H        -2.45230567177832      -1.50232773618828      -0.44046092771368
H        -4.16653548248966       0.05742935717542       0.35947817237404
H        -3.45245068497705       1.41817971080475      -0.57624475825855
H         0.32276649992711      -2.38941889605169      -1.02251768973778
H         1.87639617327663      -1.61291626771541      -0.53247399837007
H         1.75513844450436       1.93465607629557       1.09645796841187
H         2.53702719993992       0.35321313575013       0.72034015177701
H         1.77730769209610      -3.96847560547164       0.16216576469896
H         0.27811806129984      -3.65945516155877       1.11312794662127
H         1.84288864027881      -2.88385771712677       1.60095309222184
H         4.08644220260347       2.21089812174369       0.34216970638673
H         2.93779583126670       2.98706157421021      -0.81148724383715
H         3.70340296420734       1.39585376162644      -1.22092795327260
P         4.40469369622732      -6.81698502545810      -0.07078814505790
F         5.60813327218810      -7.81238043540089       0.64436227782201
F         3.66702341730492      -8.22353860712330      -0.72460045931661
F         3.40601800232876      -6.94532138773581       1.32106232573169
F         3.21935604698277      -5.87211031157942      -0.87650925103201
F         5.10193082923401      -5.40697499624736       0.61966979081345
F         5.41251152495846      -6.64321074343282      -1.45065273077547
