49
C15H28F3NO2 optimized with ADF in AMS.
N        -1.43335718682847       0.17268603460031       0.13636162727533
C        -2.51676323497710       0.41686994243821      -0.89321377177523
C        -1.66504425084070      -1.17956397700527       0.80924609093774
C        -0.11561755447553       0.13197563391212      -0.61938209456616
C        -1.41770944849697       1.25518981914853       1.21090976367247
C        -3.92393074967286       0.30217128744800      -0.33132147096593
C        -3.07152989645926      -1.32621682564406       1.36410035421549
C        -4.14427099157004      -1.06702818913533       0.31106955990474
C         1.13424239775476      -0.04607589998795       0.21869329469896
C        -1.05203435531489       2.63859221665972       0.71509568002277
C         2.36785988756532      -0.06361835378632      -0.68647109235959
C         3.65492286293428      -0.25605896180881       0.11344801339330
C         4.91324762275948      -0.26396757685323      -0.75220787023273
C         6.18334095768370      -0.45603966705665       0.07361149951303
H        -2.36092446686241      -0.34381679229073      -1.67541215405521
H        -2.32485307950840       1.40458660334018      -1.33525122214999
H        -0.92500664432825      -1.24471154573711       1.62886827520455
H        -1.46903273428209      -1.93036754193825       0.02578085198543
H        -0.07043475040043       1.06573154756683      -1.20112578474587
H        -0.22017951000782      -0.69922043097647      -1.33586194066752
H        -2.42002307820396       1.25656527336914       1.65413910523358
H        -0.72975086955156       0.87614988020755       1.99037384555155
H        -4.62320109459226       0.46918074983988      -1.16778047356878
H        -4.11511253790708       1.10560472137692       0.39923074492506
H        -3.20202429826732      -0.66442937083338       2.23411874505446
H        -3.14435635684916      -2.34931928519146       1.76682925687281
H        -5.14919037724859      -1.12428672100908       0.75813036396372
H        -4.09480115994985      -1.84654757055904      -0.47227072780034
H         1.23195970269650       0.75914799497660       0.96253919460561
H         1.08647323426837      -0.97307996490277       0.80889520538929
H        -0.03088604099036       2.68956627243059       0.31115117876796
H        -1.75394953564614       3.04015115401609      -0.03197780436874
H        -1.08626297385223       3.31307189135919       1.58431555046160
H         2.42882176024769       0.88223272062707      -1.25847914245635
H         2.27566205770723      -0.87548866000168      -1.43294368382254
H         3.58985694357917      -1.20273291317037       0.68003826370708
H         3.73280950021003       0.54524794020068       0.87087587667520
H         4.83313885210502      -1.06903857429664      -1.50610500860873
H         4.97463875709657       0.68511615846052      -1.31621866175661
H         6.15004239262223      -1.40871752398312       0.62585769285432
H         7.08459142821718      -0.46176585560529      -0.55773779638552
H         6.29360257865037       0.35192880176138       0.81445374522960
C         0.07148035283803      -0.52149972434628       4.33528385714215
O         0.17957415494300      -0.47547890833533       3.06905854806763
O         0.91710183806506      -0.44444728273763       5.23069305136009
C        -1.42039141697708      -0.70798869416832       4.80564245024728
F        -1.96679375343693      -1.88212396686686       4.32387094547088
F        -2.24093051866834       0.30882686490360       4.32333551083326
F        -1.59059591027792      -0.72343084001567       6.14979890054889
