24
C6H12F3NO2 optimized with ADF in AMS.
N        -0.41103538785429      -0.07488678558065       0.06833822075701
C        -0.86212750648496      -1.28634451362658      -0.67809452338839
C        -0.52615410699477      -0.30885002926531       1.55123540079642
C        -1.26464681949202       1.10840383915361      -0.29813776759560
C         1.01980183409999       0.24013520130234      -0.27586352680469
H        -0.22769650346681      -2.13436749471864      -0.38924494802667
H        -1.90878313838308      -1.49447113930433      -0.41994588592446
H        -0.76936097447181      -1.09649966126296      -1.75539461532387
H        -0.30776003903266       0.65724243360390       2.05846981327176
H        -1.55570097376496      -0.62683555603055       1.76423584427340
H         0.18127517228715      -1.10158570925386       1.82774881016551
H        -0.88144299580046       1.97235701266349       0.26507950024996
H        -1.17832226473448       1.27368966403172      -1.37983039365608
H        -2.30295754343797       0.88303829373068      -0.02196067112389
H         1.26923660649698       1.21018339418120       0.20670173071927
H         1.64723719795634      -0.58607242417159       0.08288352718209
H         1.09364620993366       0.32746771367700      -1.36818328345841
C         0.66295782217508       3.16480231744356       1.99225880857794
O         1.18019793865554       3.01028917954186       0.85516120682801
O        -0.22218392894984       2.48990591396556       2.57590895769935
C         1.24634036465816       4.37016564413036       2.79763971999902
F         1.34178518836611       5.50164918828078       2.03545090984779
F         2.51534359102952       4.07090191935836       3.23404991070273
F         0.51368917970960       4.69310088445004       3.89966081853181
