34
C10H22ClN optimized with ADF in AMS.
N        -0.46854061587773       0.28436334960656       0.18850742773906
C        -1.56114083279762       1.15942350072687      -0.38761896091613
C        -0.75585069236116      -1.17816266090473      -0.13304927679506
C         0.83184596756676       0.69937942009976      -0.47904037236564
C        -2.95926929152428       0.75214509477925       0.05098480260246
C        -2.14038106158899      -1.59717845535382       0.32169057956358
C        -3.23737658977655      -0.71588577918159      -0.26952736035699
C        -0.35130890452052       0.48172806460271       1.67629458458201
C         2.07609458812646      -0.02772671460992      -0.01182475834615
C         3.30426493537094       0.49175101978704      -0.75935319303190
C         4.57291906358414      -0.23006872669889      -0.30979131800950
H        -1.46955863002896       1.07395733371728      -1.48336656753266
H        -1.32591974338156       2.19492317469290      -0.09442081544016
H         0.01350520814309      -1.77312696152554       0.41636827627230
H        -0.64964783891214      -1.26529718782999      -1.22776729377038
H         0.92082799414194       1.78484586123960      -0.29945462432771
H         0.67173873747361       0.54560038809394      -1.55959945512271
H        -3.67041462977347       1.41463132961353      -0.47019024281065
H        -3.09336650765918       0.94024643441429       1.12964998712716
H        -2.17495804121890      -1.60107014436258       1.42503528576777
H        -2.26868692220932      -2.64918697946617       0.01906815187390
H        -4.22756925709301      -1.00679259520454       0.11658747318757
H        -3.26446434403479      -0.84931480616874      -1.36768466200372
H        -1.34674165026565       0.40090340360444       2.12368139245982
H         0.29497785489765      -0.33807352654145       2.07745824209844
H         0.05824711948571       1.48628466358962       1.85056543575988
H         1.97628981809766      -1.11525772178433      -0.15400961300433
H         2.22037533000248       0.09365214955157       1.07318024374998
H         3.41471938093357       1.57938689785278      -0.58902650377011
H         3.16590520914664       0.35598560904725      -1.84852096152614
H         4.48836924513826      -1.31311205654893      -0.48948521624834
H         4.73791197014753      -0.09154432979336       0.76998733442609
H         5.45687227212854       0.14376830358460      -0.84710930774042
Cl        1.13585003333886      -2.38297152912941       2.21465519670866
