49
C13H21F6N3O4S2 optimized with ForceField in AMS.
N        -1.11891512373177      -1.73580477618581       0.22210489983679
N         1.10423859863957      -1.71350248904138       0.30356093778276
C        -2.51409563442472      -1.46359930494969       0.56484946343628
C         2.46429194261733      -1.40654147879208       0.74566607474800
C        -3.01427390441866      -0.18800160835543      -0.12714287201649
C         3.04697371916390      -0.22215330807120      -0.03818255673823
C        -0.03604316615513      -1.44835320380117       0.97059153957141
C        -0.64896341990744      -2.20560513485400      -0.95126614898195
C         0.73049063392567      -2.19450931943183      -0.89977745480203
C        -2.23692495638956       1.05464659604786       0.33184562087427
C         2.19984864990436       1.04757697735352       0.13280044981830
C        -2.80601724124264       2.32839027486652      -0.28265250595440
C         2.82301957066984       2.23509929596370      -0.58959514778650
H        -3.14393322405024      -2.32437592734550       0.25188453270668
H        -2.62197570203177      -1.35514782190586       1.66656037139301
H         2.46723261615166      -1.16440508337073       1.83144853035685
H         3.10863874473770      -2.30013102207242       0.59987653378546
H        -4.09165113963800      -0.05741644254009       0.11553159389061
H        -2.92143410968615      -0.30446157720591      -1.22905323176377
H         3.11264127441990      -0.48864483145692      -1.11570643865643
H         4.07800350811222      -0.02995510677700       0.33115354414108
H        -0.07709227442996      -0.99180462738549       1.95195129313660
H        -1.26159717063810      -2.50439736914573      -1.79203982819461
H         1.40865803118340      -2.48174224529121      -1.69290255004884
H        -2.27775408838493       1.13995462013318       1.43961820589636
H        -1.17489335956653       0.96652014961184       0.02387037251244
H         1.18786950626357       0.88117377390147      -0.29136587228169
H         2.09689569628829       1.29311812330306       1.21212328403061
H        -3.85890520488552       2.47513852392838       0.03887260548216
H        -2.76060008781995       2.27513995024359      -1.39125069732359
H        -2.20596551472522       3.19974192613979       0.05553952358596
H         2.89386245740869       2.02073103065850      -1.67593530845220
H         3.83413326626075       2.45062793013185      -0.18381290537013
H         2.18254083124981       3.13113574763151      -0.44741710756832
N         8.40669202116210       1.40194352715846      -2.63291383740028
S         6.77047728464641       1.30729813968848      -2.59014701878043
S         9.29215722379727       2.02635137985854      -1.40211438545385
C         6.08425834363471       2.77873837305567      -3.32193759357690
C         9.94891200900825       0.69093577901487      -0.42458944779500
O         6.32208070203130       0.11553769635331      -3.38743298114881
O         6.28534605491344       1.17269440287457      -1.17345341734750
O         8.44777055338199       2.91887455607423      -0.53528186052553
O        10.43709732888581       2.81756061985305      -1.96811351356370
F         4.70728678631136       2.68213855768724      -3.36093646740465
F         6.56600207271255       2.91973053169226      -4.60923020827237
F         6.44498959621220       3.88308233555773      -2.57431385655911
F        10.68785554797634       1.20190732619314       0.62573277606941
F        10.76209242848842      -0.10048508545660      -1.21341321160530
F         8.91122263766744      -0.07309001924026       0.07395636101757
