48
C12H22F6N2O4S2 optimized with ADF in AMS.
N         0.23073233231097      -0.46661024301705      -0.10876080234519
C        -0.85111292554612       0.48473539161248      -0.57892315743319
C        -0.38989906404858      -1.84466961717146       0.08000625187871
C         1.27667533615632      -0.54231864749635      -1.21149007693329
C        -2.04528232072922       0.54159973994497       0.35948053495183
C        -1.58383360142207      -1.83630644954847       1.01577027412821
C         0.85196204763156      -0.01026553813474       1.20293956986590
C        -2.65224189382014      -0.84752242244721       0.55819228977808
C         2.50777787584958      -1.37598009510521      -0.90861086263562
C         1.54427744406931       1.33514778017702       1.14365160404980
C         3.41693129858112      -1.40185081840634      -2.13741713719565
H        -1.16158908932807       0.10955481309000      -1.56750947038808
H        -0.38279465573642       1.46856011005499      -0.72010033395709
H         0.39660936359818      -2.50355526559008       0.45706347208852
H        -0.67965335643035      -2.17835265250842      -0.92902308138683
H         1.55167882335761       0.49902822041255      -1.44246149917069
H         0.74261489215440      -0.94619825478679      -2.08698392953989
H        -2.77873994938204       1.23386028920476      -0.08663935392110
H        -1.75470175687647       0.98072610567969       1.32872291492850
H        -1.25606320245125      -1.63780834943086       2.04802442898239
H        -1.97501114849970      -2.86533939989203       1.03060987188420
H         0.04134919343922       0.00333989245436       1.93980562376993
H         1.55127516406666      -0.80221936179614       1.50799905137933
H        -3.47806217874888      -0.80497851572520       1.28562513155957
H        -3.08490271605428      -1.19096629819758      -0.39991055339949
H         3.06041359542986      -0.96858904247305      -0.04880925740322
H         2.24208099936609      -2.40857851983467      -0.63726687753824
H         1.96478950550021       1.52399583775130       2.14307533788840
H         2.38494067886962       1.34879313669839       0.43566138062030
H         0.86357690189284       2.16797085414036       0.91285698577253
H         4.31159099151354      -2.00270724144931      -1.92298068695784
H         2.90853374362519      -1.85646576206953      -3.00244733712746
H         3.74504587520693      -0.38937122925521      -2.42431124036281
N         2.42452295594871      -4.26685962096054       1.02277207908624
S         1.84511953862191      -5.74880961260764       0.71107821206499
S         2.10217513117626      -3.46867193467667       2.37778919201002
C         0.37563621240261      -5.40595510934070      -0.42740344882793
C         2.92638425179873      -4.39895257046503       3.82920878774305
O         2.77419421156378      -6.41042792979060      -0.19002257827206
O         1.26922901824317      -6.44260049263666       1.85503151575039
O         0.68732784123794      -3.37327550909540       2.75253337985085
O         2.86849384316658      -2.21766265977248       2.29604802164938
F        -0.05054220138578      -6.55937136154052      -0.98470823067194
F         0.72055222115591      -4.54911896369416      -1.43489509928510
F        -0.67179742469860      -4.85012650131655       0.24083025477533
F         3.35255494609303      -3.47916504853818       4.73069852822710
F         3.98912218284692      -5.11242200633347       3.40340665795744
F         2.05295020558323      -5.21930770951658       4.43803597471170
