22
C6H8F6NP optimized with ForceField in AMS.
N        -0.70401640255068       0.00064263857363      -0.01367750961571
C        -0.02362382056058       1.18631520824115      -0.05562010110116
C        -0.02780738706891      -1.18830729721710       0.00772814633904
C        -2.16786693890191       0.00448644602560      -0.02226056824391
C         1.37263063100627       1.20225331609352      -0.04296590847370
C         1.36860903429087      -1.20823721183569       0.01612987207557
C         2.07033400650738      -0.00393400138468      -0.00381304210255
H        -0.55718992781554       2.12912573531469      -0.09223321102908
H        -0.56429821661223      -2.12999045070499       0.01786835963588
H        -2.56868694643962      -0.89240992099226       0.49814131361321
H        -2.56166079760251       0.89912289084183       0.50722793936191
H        -2.53325054085849       0.01088551922149      -1.07071483673793
H         1.90757793475628       2.14274611929219      -0.06406094375694
H         1.90070413822677      -2.15045613955414       0.03757404691455
H         3.15212298710790      -0.00549618264663       0.00676159985556
P        -1.94651057904130       3.76259997745746       3.23154693890610
F        -1.20034992107973       3.38256070829144       4.73116174544182
F        -2.64981680674847       5.12149163195249       4.01192431304906
F        -0.58933787196610       4.69747528153031       2.74724105575941
F        -2.64172788793717       4.16706842184712       1.71374895672635
F        -1.22681002028300       2.33325049828952       2.61057721468257
F        -3.36164661372922       2.85751065796305       3.58978666449994
