55
C15H25F6N3O4S2 optimized with ForceField in AMS.
N         1.36207985234759       2.28402806752580       0.04162308699375
N        -0.84291649721340       2.43623192433629      -0.21768841938838
C         2.74289429375994       1.87151435378244      -0.20595414115200
C        -2.17658348696370       2.23685802555260      -0.78518848504342
C         3.01088367171921       0.47031585094257       0.36322311138548
C        -2.41630453595515       0.75746198021957      -1.12404054736061
C         2.07051742723087      -0.58583714660941      -0.23785556078127
C        -2.34992538812342      -0.13500672818551       0.12424211978062
C         0.33443109721732       2.19051194808470      -0.82525838332235
C         0.81794710820005       2.60602085405012       1.23235828651211
C        -0.54889854852324       2.70911979181926       1.06970363751502
C         2.41136058725251      -1.98777099265833       0.27253061086566
C        -2.54999629097661      -1.60985078569536      -0.23824212714688
C         1.45482657430355      -3.02834100658009      -0.30378513099697
C        -2.47283932223812      -2.49521698162531       1.00272067303966
H         3.43608154747414       2.60020689139539       0.26716044558068
H         2.94999568794186       1.87325124990189      -1.29870505623666
H        -2.27515473366918       2.84593064990931      -1.70919076109679
H        -2.95383353461881       2.58249921252998      -0.06845365677730
H         2.89080724234632       0.49190493319185       1.46830998250394
H         4.06483294517784       0.19585986318542       0.13855288202016
H        -3.42027405035627       0.65847693297509      -1.59121040979300
H        -1.66182433781876       0.42158086112117      -1.86852518275221
H         2.15015123530840      -0.56577168968682      -1.34721004162527
H         1.02251408130917      -0.35342040770893       0.04631540927959
H        -3.13603307687184       0.18088341628866       0.84451475266120
H        -1.35943862614917      -0.02107852520356       0.61416414353752
H         0.43281526035073       1.86089795630271      -1.85217753531068
H         1.36547078558351       2.69125687272190       2.16214686839242
H        -1.27855720582257       2.89109764258292       1.84814003250421
H         2.34212502403454      -2.01135677628614       1.38174381972670
H         3.45053920346632      -2.24585552230589      -0.01924484070852
H        -3.54254610888248      -1.74856289671203      -0.71903974407547
H        -1.76344297528989      -1.92785628367084      -0.95683721496162
H         1.50061802434945      -3.02716075114394      -1.41371330281611
H         0.41540340243268      -2.81136200889002       0.01738812126266
H         1.73463752994463      -4.03753314171456       0.06410515128564
H        -3.29492220520791      -2.24424554843681       1.70607453676065
H        -1.49877015691727      -2.35788746499882       1.51893118269484
H        -2.56974304068459      -3.56059533397594       0.70564798889838
N         5.76835835586353      -4.71383550314563      -3.59882903348263
S         6.09196285358522      -5.93165521740762      -4.64560316294835
S         5.71604510914491      -4.93053615933071      -1.97549293538956
C         4.56221730556072      -6.69380616167525      -5.14643924870705
C         7.25011960230521      -4.37162932864526      -1.26516333744106
O         6.77415551438138      -5.36890246248715      -5.86043349448518
O         6.97858184794212      -6.96150322421155      -4.00137642168668
O         5.50146106041217      -6.37920213501339      -1.63357613972697
O         4.59354539283802      -4.11056685227438      -1.40839556283686
F         4.82410020053285      -7.70920424164089      -6.04553236121974
F         3.75140471762282      -5.74942586812728      -5.74632475322029
F         3.91519596846312      -7.21585929416124      -4.04291649757507
F         7.21864932229105      -4.54987115538449       0.10429173739996
F         7.42924651358160      -3.03102058229217      -1.54803427216646
F         8.30049740210707      -5.09497872483431      -1.79697887286944
