50
C14H28F3NO3S optimized with ForceField in AMS.
N        -1.54252141923098       0.09592220795696      -0.08784037461849
C        -2.55534370470858       0.48959571269880      -1.12152380221219
C        -1.78359709933868      -1.33123321149475       0.30368733691422
C        -0.19591151577368       0.19199659169721      -0.75101112828387
C        -1.62228459272167       0.97254517857011       1.13276881166715
C        -4.01498104305114       0.27168308773288      -0.68893924403733
C        -3.22779288586558      -1.62180647747172       0.75987232477063
C        -4.24359380948096      -1.18289388222807      -0.29091395449844
C         1.02611622801953      -0.12550944476193       0.14728907667183
C        -1.27739325292890       2.45709893974975       0.91369739411802
C         2.33177427070893       0.04080760104169      -0.64307544082897
C         3.55559164953132      -0.28677775834805       0.22160810949660
C         4.85437277743429      -0.06350714396467      -0.56278909237703
C         6.07897576988409      -0.40165368397821       0.28326920031166
H        -2.40437098749710      -0.10832309056040      -2.05111021361387
H        -2.42936614563000       1.54738385486937      -1.43314242815307
H        -1.11483146747758      -1.63288231900361       1.13865877069404
H        -1.55892608805931      -2.01245856628380      -0.54942610063313
H        -0.05418027970013       1.20402974117751      -1.19169418800010
H        -0.15292246777434      -0.50437275996390      -1.62081357834852
H        -2.63434115864175       0.94836430823236       1.58056497454992
H        -0.96104133519852       0.58324339701276       1.93669041785491
H        -4.68293195328871       0.51644281496050      -1.54320988121471
H        -4.29711842677261       0.95250193071798       0.14023011904933
H        -3.44411075218961      -1.12776565662784       1.73000292632980
H        -3.33824456184476      -2.71534062603363       0.92668822559167
H        -5.27167802992804      -1.29937616401920       0.11453516932323
H        -4.15247517709955      -1.83265611110002      -1.18920521420361
H         1.06497003249119       0.56101505018330       1.01703146166530
H         0.97347611474084      -1.17065811816114       0.51565329166840
H        -0.23400244992420       2.59551154833574       0.56777618371799
H        -1.97983378316933       2.94287867622498       0.20837846954592
H        -1.37048592410278       2.99065548647349       1.88312668912377
H         2.40862010395449       1.09025619538089      -1.00414564826372
H         2.31783841382935      -0.63558344184648      -1.52622089665580
H         3.49915347230871      -1.34818872824684       0.55031271473900
H         3.55671367050777       0.36324190219755       1.12426911471349
H         4.85711023115904      -0.69990478982281      -1.47410258249564
H         4.92176709058942       0.99955786741123      -0.88114329375432
H         6.03512037953934      -1.45578366859421       0.62990373697357
H         6.99854563148260      -0.26698927643075      -0.32452598801367
H         6.13406689319428       0.27000614192227       1.16598616388937
S         4.95723817927998      -5.68517351243655       0.07095066617752
O         5.80354753679748      -5.41839708440365       1.32452163184461
O         3.51684476473792      -5.60721285673812       0.59812086693077
O         5.15933602584039      -7.18756920830420      -0.17514293804714
C         5.31836195506108      -4.61520797010604      -1.34725204734550
F         6.64775371548554      -4.74685707305807      -1.69896233218492
F         5.06013892268644      -3.30354749655989      -1.00768698795419
F         4.52040328503444      -4.97747976519879      -2.41479717449448
