40
C12H26ClN optimized with DFTB in AMS.
N        -1.64921414672827      -0.31733619599486      -0.18278183777860
C        -1.91804745964827       1.12553009446874       0.13753091405097
C        -2.65203777277211      -1.18566246453621       0.51749725800494
C        -0.29574518379466      -0.70812570860078       0.35582074787603
C        -3.34220792085137       1.53619912549193      -0.20083575536072
C        -4.09768556689474      -0.80708101761104       0.21034042897942
C        -4.35808439997062       0.66374002754996       0.53207634698682
C        -1.68750339515954      -0.55895829134136      -1.65288853844666
C         0.89276838567367       0.01479426625635      -0.27262368324386
C         2.18682155905139      -0.46734414329647       0.39065751381993
C         3.39797564461123       0.24178381728865      -0.22337611906218
C         4.70418538087737      -0.22877193064295       0.42283486877637
C         5.91152445017451       0.48151849885584      -0.18705563118164
H        -1.21711027611013       1.72484576552111      -0.45621024884270
H        -1.72251091949561       1.25839039658143       1.20515210251936
H        -2.46649127621751      -1.08696162522719       1.59100684744513
H        -2.45472996341908      -2.21833013800434       0.21889586653104
H        -0.32073129823127      -0.51720456483258       1.43295826652266
H        -0.20025647745779      -1.78727203133198       0.20012122681250
H        -3.46058268550492       2.57979786452215       0.10057882589959
H        -3.50362745951366       1.48345041834187      -1.28032514370318
H        -4.33383910495275      -1.00985834742080      -0.83742876800508
H        -4.73926264581668      -1.44598705982067       0.82335684580674
H        -4.27334427146680       0.82352892840894       1.61218168065149
H        -5.37229209430099       0.93135163626548       0.22674170417418
H        -1.07953153906226       0.20754677314150      -2.14383854204734
H        -1.30108931199765      -1.55654458908907      -1.85344158337317
H        -2.71093022956708      -0.48273600035470      -2.00860229333624
H         0.93892268013684      -0.18541093884427      -1.34438870159340
H         0.79957057363651       1.09382544285948      -0.14248185442776
H         2.14719904126006      -0.26328269777071       1.46677319008136
H         2.28779898238468      -1.55091611711036       0.25961309341467
H         3.29047785370979       1.32268418956607      -0.08876064502531
H         3.42778590438945       0.04126558939842      -1.29908523916026
H         4.81042638829837      -1.31069101086444       0.28589401080979
H         4.67078056971400      -0.03060846879004       1.49992670452009
H         5.97200353969666       0.28045776839953      -1.25740712530580
H         5.83384541358566       1.55960673334164      -0.04092131121748
H         6.83001422701269       0.13173904348196       0.28502292934754
Cl       -0.24209713607906       2.21637296154380      -2.35355175571925
