46
C12H23F2N3O4S2 optimized with DFTB in AMS.
N        -0.04945938088290       2.34385146598320       0.29945594346896
N        -2.03495074160575       1.55692615941327       0.01362776713242
C         1.39755033590369       2.52105428712021       0.21328466145708
C         2.14233720622331       1.52652119565759       1.11112740410547
C        -3.13282530006410       0.67204014232882      -0.36507917944130
C         2.08191065669439       0.09387141102549       0.57632477003976
C        -3.23990964183146      -0.49691234165124       0.62265210825681
C        -0.76189715722082       1.42845121125703      -0.35982555724716
C        -0.88010186588879       3.04654852829219       1.12862732929220
C        -2.13298473770813       2.55563708525271       0.94023498767890
C         2.92566052665358      -0.85354243706262       1.43537579219010
C        -2.16570524429995      -1.56213558239171       0.38951031466704
C         2.78312104323723      -2.29759009440980       0.95986952452390
C        -2.20222059024443      -2.62122653376693       1.48934571615540
H         1.61464995681092       3.54582605633135       0.52408657163848
H         1.69210387041936       2.39636126436351      -0.83316993907173
H         3.18410961488947       1.85708195826608       1.16088333269092
H         1.72531853858324       1.56511639275892       2.11995639705369
H        -4.04868614671595       1.26779707273692      -0.35061587549726
H        -2.95152248266538       0.31796642230459      -1.38407364303959
H         2.43812504295498       0.07303756208157      -0.46079418715014
H         1.04369225636920      -0.25060817223250       0.58295354691473
H        -4.23157833222178      -0.94209503703411       0.50147153296223
H        -3.16608430700211      -0.10923393801177       1.64148403031488
H        -0.38486800546782       0.74166265292599      -1.09632705790604
H        -0.52349648111064       3.81987685046950       1.78612424575215
H        -3.06932613586224       2.82526963592942       1.39509968918155
H         2.59868726222112      -0.78101444386737       2.47591326502417
H         3.97719812381763      -0.55103340511767       1.38780560603922
H        -2.31917196000767      -2.02984678272741      -0.59011780636253
H        -1.17914214920671      -1.08880648473997       0.38315006513506
H         3.10178286728686      -2.39616372034713      -0.07945329709010
H         1.74446701483675      -2.62207230995773       1.03722080582138
H         3.39790618671403      -2.95372350527102       1.57591177959393
H        -2.01390960584571      -2.16250854020802       2.45965894954945
H        -1.43582696487754      -3.37384096815007       1.30389596665234
H        -3.17582793884349      -3.11212044910691       1.51680969632100
N        -0.71361449479466       1.79387922408623       4.14009244037746
S        -0.36209244288448       0.28368431841567       3.83685429037457
S        -2.25638075671089       2.18956298640543       4.11580775141967
F        -0.58012061111693       0.22333141191867       2.18545168852057
F        -2.71323282998059       1.98966578440183       5.64354480847279
O         1.05093131340724       0.13011995936894       3.96839800527763
O        -1.22913025561942      -0.74265690820094       4.31117062692439
O        -3.13907298268821       1.34801396228812       3.35952128937162
O        -2.33124188995444       3.60154490227165       3.89551597945394
