57
C15H32F2N2O4S2 optimized with DFTB in AMS.
N        -1.03428967041496       0.26196628500709       0.45396815640996
C        -1.41396380868037       0.83872742497960       1.79230747713235
C        -2.08856662671954       0.63137878321253      -0.54545557260152
C         0.25216043460521       0.90943366474971       0.00310774594712
C        -0.87158646263879      -1.22573992893473       0.58344281273673
C        -2.80089141642020       0.42504204249577       2.26125227510964
C        -3.48406953045977       0.18072328386729      -0.12725661418136
C        -3.86278000658002       0.78170062666369       1.22620342939245
C         1.48451438845273       0.53448475485233       0.82388786687415
C        -0.48569449841588      -1.96374304811240      -0.69394314739969
C         2.66397853064218       1.42705447767368       0.42294743817431
C        -0.16011278809000      -3.41649770596904      -0.31907506405876
C         3.90021667393479       1.08160161855014       1.25986691498686
C         0.30499084470287      -4.21651788516474      -1.53847863570186
C         5.08759772342441       1.96639184356792       0.88728898004168
C         0.63350475570120      -5.65836068636002      -1.15606673967091
H        -1.35645647816589       1.92638582249155       1.69730379202170
H        -0.66862505032958       0.50177433079929       2.51150546971888
H        -1.80953752265547       0.19274239110359      -1.50551666837269
H        -2.06469271581987       1.72097953840508      -0.63997793566220
H         0.08611261036525       1.98916623680534       0.05331652472437
H         0.40114528502571       0.63833007224840      -1.04528520728770
H        -1.80709139251932      -1.62815929866353       0.97131111719729
H        -0.10419333346880      -1.38710351399643       1.33811186909495
H        -2.98734356007990       0.95443846642128       3.19887631527587
H        -2.82603520370052      -0.64354451076558       2.48349933946080
H        -3.53773763865511      -0.91016818128198      -0.08627328244938
H        -4.18171476528759       0.51924153958628      -0.89800183846409
H        -3.94172172438151       1.86997733096803       1.13279484486660
H        -4.83474444528658       0.39546592195492       1.54066261961677
H         1.29249774942784       0.66258787860411       1.89115888503094
H         1.75357076951966      -0.51076897946302       0.65517098643845
H        -1.30319955697946      -1.94471096134527      -1.42082122574309
H         0.39351318440842      -1.50886521885046      -1.15758298273269
H         2.39673097245305       2.47772390471469       0.57987780967164
H         2.88509838755104       1.29184382696316      -0.64167300225410
H         0.62149989893823      -3.41878555683141       0.44708066567338
H        -1.04970818956768      -3.88590597704208       0.11300501344100
H         4.16238072444602       0.03052231535238       1.10179628746730
H         3.66480133581451       1.21251735442237       2.32056897002029
H         1.19376782773638      -3.74111262417978      -1.96762260429440
H        -0.48035151825369      -4.20927469158797      -2.30241943241303
H         5.95217973641119       1.70187974814739       1.49581417684994
H         5.34899416367677       1.83589427647871      -0.16398302648432
H         4.85048203421072       3.01725981889360       1.05870173172367
H         0.96688711768257      -6.21059883475604      -2.03480585919178
H         1.42618744699979      -5.68250095758516      -0.40765626352058
H        -0.24671075914926      -6.15466123671455      -0.74570297856825
N         0.90073628498538      -0.33825251713168       3.89824424911911
S         0.15357677312771       0.63662515792368       4.92422717562421
S         0.49339705484618      -1.86693453497324       3.90181287540310
F         0.68492624931166       0.19107040735755       6.36914271094308
F        -1.08445952878001      -1.84767102634995       3.39452151474612
O         0.68600238814306       1.94220239680205       4.70672677048385
O        -1.26849649532591       0.48437219293355       4.98747371009992
O         0.44388675285939      -2.54428967391294       5.15016870027933
O         1.16730281772172      -2.47824056882471       2.79367316435463
