42
C12H21F3N2O3S optimized with ForceField in AMS.
N        -1.27763864441538       1.31281242271907      -0.23812877728017
N        -2.65232461455306      -0.39552843760504       0.12869613197080
C         1.10932561496806       1.93683758587032      -0.22035782108010
C         1.57812715724711       0.48302808174115      -0.37655236805964
C        -0.26459359012943       2.16067249030349      -0.86333719051628
C         2.97949522002079       0.28630567672938       0.20701580827270
C         3.42878521117466      -1.17166844311048       0.05971911663438
C        -1.79673355664997       0.17539015575795      -0.74058178378838
C        -1.82101407451031       1.46462873573553       0.98667176025305
C        -2.67691839313012       0.40613884730226       1.21288024272058
C        -3.37359031315192      -1.65193223739456      -0.05134018875293
C         4.82241684410416      -1.37798439767006       0.64241916595197
C        -4.82902250565296      -1.37462378870614      -0.40242155239905
H         1.84149719907527       2.61456317828266      -0.71164010763354
H         1.06120886220297       2.20325987178199       0.85805392233207
H         1.58473639309556       0.21108381950729      -1.45528010263312
H         0.87351519820095      -0.19346627972603       0.15452412798987
H        -0.55767314127339       3.22714386874663      -0.75342524971483
H        -0.20272823488333       1.94124462805775      -1.95210041134097
H         2.97019692952643       0.56172116715584       1.28493649176856
H         3.69650742904026       0.95039653447152      -0.32418985064950
H         3.44225195333900      -1.45267076101480      -1.01624847197686
H         2.71524443297244      -1.84041032870276       0.58929124097514
H        -1.53765980272132      -0.24030969108155      -1.70645275981935
H        -1.60181198861469       2.27533972831501       1.66933184614466
H        -3.25877319829952       0.22613336690948       2.10754528698522
H        -2.90944517815236      -2.24325710266991      -0.87091832824765
H        -3.31620873629245      -2.25506077554308       0.88081486687171
H         4.82806073223425      -1.13214779590251       1.72562182427155
H         5.55475486001719      -0.73174227094859       0.11722162836418
H         5.12735997835516      -2.43771726387010       0.51387582824565
H        -5.31933596715027      -0.80721550968249       0.41654368380262
H        -5.36777558294470      -2.33399205615599      -0.55107232128134
H        -4.88341200432284      -0.78199966010164      -1.34053883235695
S         9.42486009238527      -0.43743639973192       0.68886438916702
O         8.78567220481577       0.03714156802471       2.00192506004067
O         9.09088856744361      -1.93596148066386       0.65998827013749
O        10.92677849618942      -0.42236539506427       1.00842710156128
C         8.94283347545919       0.49563303633700      -0.79221062488304
F         9.30932607216793       1.81913728985819      -0.64243562534928
F         7.57550235419230       0.41592761443521      -0.96590250521336
F         9.57728676082026      -0.03578411479665      -1.89835376468481
