42
C12H23BF4N2 optimized with ForceField in AMS.
N         0.23358251167708       2.31520750465773      -0.21771808166498
N        -1.84113319923871       1.51196983398660      -0.20238018474353
C         1.62678906368120       2.51068366963449      -0.61910546408212
C         2.55066769218484       1.49260392781704       0.06931119357819
C        -3.02896077324293       0.75618525596778      -0.59926326721894
C         2.11715708038505       0.04860982172859      -0.21985590493675
C        -3.06829362689311      -0.61717695001543       0.08804762392685
C        -0.72922757996916       1.70615726692494      -0.93795961731166
C        -0.29026511042177       2.52249571523726       1.00724388513540
C        -1.57734931429785       2.02470733943620       1.01648688490174
C         3.08946608222471      -0.97337583168198       0.37438098277053
C        -1.87773121350092      -1.49303672200919      -0.32652582453885
C         2.58352073096509      -2.39670676398747       0.14418164963045
C        -1.93791612470941      -2.87303164731993       0.31951575556333
H         1.94516761315536       3.54126061999306      -0.35330781251776
H         1.72012755112494       2.40354110502897      -1.72229529153786
H         3.58838310874209       1.64997147632695      -0.29715967785586
H         2.54497946141371       1.67025104707586       1.16689079162603
H        -3.93644646055269       1.33409503984044      -0.32682513621239
H        -3.04041499610016       0.61782358225585      -1.70288613179603
H         2.04011649722174      -0.10669560994470      -1.31878508775690
H         1.12097204006443      -0.11858728646739       0.23443822841642
H        -4.01489893917028      -1.12739373504333      -0.19503758836400
H        -3.07126687586018      -0.48177863506218       1.19185737409733
H        -0.59325531513839       1.33410342515315      -1.94601863131115
H         0.24203617999541       2.95277178615153       1.84522038982784
H        -2.25011750238362       1.99294755853215       1.86226594476442
H         3.19301292278661      -0.80165998292599       1.46808652572602
H         4.08910732521514      -0.86047532040644      -0.09814268016040
H        -1.85833409125217      -1.60827436355927      -1.43220086796473
H        -0.93503464187857      -1.00759655524215      -0.01014784291104
H         2.49328003865359      -2.60393575798694      -0.94351817490044
H         1.58982765399384      -2.53617785792495       0.62266397099413
H         3.29509689144428      -3.12477491063411       0.58698272644537
H        -1.94143693741382      -2.78166256835419       1.42677526141414
H        -1.04524830910587      -3.46142782997374       0.01700506193678
H        -2.84916599180400      -3.41522409086803      -0.00958885159905
B        -6.06510166186685       1.66663403964865       2.40571146060595
F        -7.06716140164804       2.58164489144681       2.82419468906091
F        -6.18632651528046       0.46008937443096       3.14456038947397
F        -4.78382564623778       2.23370146582015       2.63291463976685
F        -6.22477394636237       1.39184067231225       1.02205376092176
