40
C10H19F2N3O4S2 optimized with ForceField in AMS.
N         0.35573783051406      -1.61800005236667       0.30862971264960
N        -1.76303764032914      -0.94679158775304       0.27818929373609
C         1.75664582140874      -1.73996170724986       0.70555885935553
C         2.64269513720972      -0.79238176341333      -0.11406019501977
C        -2.99859450979615      -0.26072134528869       0.65080634708010
C        -0.61966902363579      -0.98540207222026       0.98877790821361
C         2.24746615280532       0.67772541307549       0.09030777768292
C        -0.19085473571628      -2.00151738806892      -0.86269872792288
C        -1.50683078971165      -1.58792059002843      -0.88033139815252
C        -3.24840603304288       0.95624563166962      -0.24962522541626
C         3.20699979090016       1.61793283344411      -0.63163226540096
C        -2.13279432140223       1.99496611846874      -0.13781971833234
H         1.86830985146299      -1.50776899004626       1.78760512442575
H         2.09097520723698      -2.78832644968580       0.55135004192850
H         2.56542837683695      -1.05291424600833      -1.19198276543425
H         3.69887795084630      -0.93980919294865       0.20023759626325
H        -2.94722038820264       0.07021596685771       1.71173439575212
H        -3.85031339514204      -0.96825063160086       0.56044476183209
H        -0.48439065856496      -0.51534584069970       1.95497376921227
H         1.22475394796140       0.85054805181425      -0.30673934566405
H         2.24774570862498       0.92132863732040       1.17442236273797
H         0.33559144672613      -2.51418976623146      -1.65689038784045
H        -2.21268159514758      -1.71660894373887      -1.69032628311026
H        -3.34126804640681       0.63020780539554      -1.30783213066776
H        -4.20927032550350       1.42870195170220       0.04720523840361
H         3.21725448543065       1.39784447074667      -1.72022365517827
H         4.23407126414246       1.50917597521722      -0.22336271241851
H         2.87644303740192       2.66831556635791      -0.48599972791018
H        -1.18325858166360       1.58806443322789      -0.54404756326413
H        -1.98111767220566       2.29247088010523       0.92148887693503
H        -2.40447930918518       2.89671911951271      -0.72559592439241
N         2.69944213074767       5.26782587306822       3.40512235801320
S         3.19121480291044       6.17448723958059       2.13560811573065
S         3.31951258627714       3.77929615576849       3.68021762822489
F         2.52923061821564       5.55317671837119       0.72939244612583
F         4.81517381048406       3.93672195465514       4.41437495928122
O         2.72949355782136       7.59189064969127       2.32219026630254
O         4.69020277594777       6.13889954543408       2.02615224489319
O         3.48982762248152       3.04088078458211       2.38265389481319
O         2.39859921026169       3.01127940568233       4.58526116103185
