34
C8H18F6NP optimized with ForceField in AMS.
N        -0.35855012540610       0.37531780327817       0.06245394197969
C        -1.40339675298070       0.63516835736685      -0.96589307392332
C        -0.83039288733589      -0.82119871031528       0.81987634964531
C        -2.67068517133430      -0.06340650876250      -0.52083366516308
C        -2.16863035756332      -1.26016121352080       0.24206508968086
C         0.94582717468098       0.11768725330306      -0.62122553467556
C        -0.26241935904034       1.55569802167725       0.96083505048373
C         2.15359536939404      -0.03880902272431       0.33109532088347
C         3.36798775607523      -0.58270446045074      -0.41787639040933
H        -1.12374049207316       0.21079814413480      -1.95922354809580
H        -1.59494580964071       1.72084280637260      -1.13117935066536
H        -0.96881864296989      -0.60502489730890       1.90504994922245
H        -0.12382515923096      -1.67877625496361       0.76185377564750
H        -3.30201593721972      -0.36471913366299      -1.38503375027487
H        -3.25225445642766       0.60072413940419       0.15572869835267
H        -2.88442796572225      -1.56363536832388       1.03483040923756
H        -2.01387623638547      -2.10989366705714      -0.46020058484691
H         1.17498716838508       0.95163579696097      -1.32468455302179
H         0.86182397100157      -0.80568652057447      -1.24090206317989
H         0.15294431057513       2.43502778840964       0.41985048411844
H        -1.26370350821680       1.83619500135414       1.35895136486154
H         0.38712846936462       1.34651328525836       1.83847496168746
H         2.42737352712660       0.94942511533538       0.75810084905206
H         1.91818058219123      -0.72701480746334       1.16924830317556
H         4.23448383991821      -0.65067950484775       0.27279026634020
H         3.15263226732254      -1.59705796311355      -0.81632672112375
H         3.63503726172147       0.09111338219778      -1.25997133528346
P        -3.52958432728043      -2.82749971256137       4.25820533511008
F        -4.36523189980349      -4.32917471688776       4.24985437669993
F        -4.57301805261723      -2.31896581007583       2.99124189681975
F        -4.61270660732897      -2.04320231525707       5.33754403599027
F        -2.57732948259729      -1.40047316535325       4.15800561080124
F        -2.69006912279701      -3.38388697244288       5.65070911395097
F        -2.37150027058504      -3.48859414328577       3.17393498732236
