38
C12H18F3NO3S optimized with ForceField in AMS.
N         2.36288137603162       0.03908156103017      -0.53663159682345
C        -1.45072069510768       0.04560113285533      -0.70873553343252
C        -0.04900371180590       0.01867782437231      -0.09139178048841
C        -2.52707076458978      -0.01511241449095       0.38158749011697
C         1.03914605543327       0.07373132858996      -1.16823718289249
C        -3.93262850637367       0.00002980083192      -0.22886282306613
C        -5.00432600103227      -0.06425541731313       0.85569408940421
C         2.95599860600629      -1.16510371824573      -0.26998216449746
C         2.96353582089583       1.20811200154638      -0.15571369374515
C         4.17345084215070      -1.21927091768231       0.41162782256100
C         4.18099818801740       1.18912502155682       0.52739502914411
C         4.78043217591184      -0.03356386145418       0.82212875229824
H        -1.56804573003138      -0.82406294542407      -1.39226100400020
H        -1.57517437580915       0.98019787333503      -1.29896326697166
H         0.07181169758874       0.88823521655902       0.59168870898815
H         0.07578459208049      -0.91313922222591       0.50310422863207
H        -2.39536326724805      -0.94557465893856       0.97718565882863
H        -2.41175101431759       0.85809314334581       1.06135094484588
H         0.92521462564711       1.00100815173306      -1.77350516972140
H         0.92384106741942      -0.78483320932491      -1.86729097512617
H        -4.07438065135984       0.93060329492007      -0.82056869098313
H        -4.05563439916404      -0.87160451899462      -0.90807926273968
H        -4.91999624471522       0.81129259020453       1.53427251258050
H        -6.01027439533916      -0.05371753202863       0.38583361667224
H        -4.89889534534102      -0.99829456008695       1.44788533328533
H         2.47915605050640      -2.09225813951683      -0.56614129646493
H         2.49279683917916       2.16247664790547      -0.36081988519004
H         4.63402223597538      -2.17373323940953       0.63159785762656
H         4.64756829730461       2.11472867442516       0.83839967833059
H         5.71067751953754      -0.06138756841540       1.37312794477575
S         8.58973452647544      -0.29829833973808      -1.37997428375361
O         7.64353021375094      -0.77751689862296      -0.27130047881492
O         8.61139166250520       1.22554939695192      -1.18812202382035
O         7.75454520166752      -0.48338012691886      -2.65557718743909
C        10.21205412595170      -1.10522854422042      -1.38832442868887
F        10.04547148105055      -2.46863114621275      -1.53636335457788
F        10.85932737891497      -0.84751307915675      -0.19531606907631
F        10.96554942203258      -0.61570901574141      -2.43728847837638
