54
C16H36ClN optimized with DFTB in AMS.
N         0.05203841819368       0.06436664611890      -0.01344198071551
C         0.89790906125915      -0.94390297074336       0.72483118896244
C        -0.81054420364604       0.78827850447066       0.99340777101131
C        -0.78288844473116      -0.67388510763367      -1.02661437675112
C         0.89803300126768       1.07991870718200      -0.72695657904437
C         1.94840154953066      -0.35527734197300       1.66119766981063
C        -1.89866459696145       1.68153104056525       0.40748756323631
C        -1.80800464633428      -1.64649295332653      -0.44633624146162
C         1.90150650808113       0.51067842458960      -1.72863364161600
C         2.48192577673645      -1.48106852490895       2.55810111075095
C        -2.68096587044064       2.31535776797609       1.56610626092228
C        -2.59813381606827      -2.28842347330183      -1.59180626228332
C         2.75726428764895       1.65268794893171      -2.29158910657206
C         3.54462949759251      -0.95948690188470       3.52166496427221
C        -3.80910621350642       3.20390016284445       1.04799472715037
C        -3.63514404507427      -3.26757115489856      -1.04513451714688
C         3.77054048456245       1.13011694315463      -3.30758488145015
H         1.37243216261437      -1.58456093503392      -0.02193005763174
H         0.20087172780664      -1.54508386386638       1.31973073482777
H        -0.13789509211570       1.39550173526515       1.60250864562942
H        -1.25482930665210       0.01903021719901       1.63735587514404
H        -0.08751193741036      -1.22636237361037      -1.66330563323194
H        -1.28137748106254       0.07948480027361      -1.64260499228273
H         1.42700744858426       1.64961679309336       0.04066534397889
H         0.21642668717367       1.75768923929973      -1.24626212237878
H         1.51193798797350       0.41870737364983       2.29659639459803
H         2.77395415430207       0.09194154668748       1.09781917445434
H        -2.59152714400018       1.10270219919327      -0.20771973265132
H        -1.47090783947156       2.47293961390799      -0.21646278256673
H        -2.49854177812488      -1.13359900554534       0.22421411087951
H        -1.31017024533737      -2.42666260401506       0.13169504950787
H         1.38200429399600       0.01440826155927      -2.55240326288970
H         2.55500749338977      -0.22152141028260      -1.24914448183633
H         2.90822338721364      -2.27343677669859       1.93399238720212
H         1.64854300198384      -1.90740626110933       3.12466954758538
H        -1.99944081514820       2.90999146061349       2.18297788181505
H        -3.09788589760505       1.52240904115805       2.19380240332444
H        -1.91074596504879      -2.81702918431937      -2.26172677627368
H        -3.10045603162855      -1.50827774151875      -2.17510572265443
H         3.28520919048806       2.14917322562587      -1.47083863347457
H         2.10739907783933       2.39312639243524      -2.76958471804482
H         3.12710956510866      -0.18718708099169       4.16871752620368
H         4.38820328776461      -0.53604480417215       2.97364553836789
H         3.90941571776314      -1.77496575196642       4.14578123372010
H        -4.51005578129593       2.62142405111400       0.44873141658295
H        -3.41091761940212       4.01094140138284       0.43097158088267
H        -4.34986695330386       3.64178828417214       1.88669057972427
H        -4.33829529254825      -2.75061324127997      -0.39179931484842
H        -3.14741345881415      -4.05712061410739      -0.47333280543930
H        -4.18930644282122      -3.72121084049580      -1.86691236213105
H         3.26109081946989       0.64844682494736      -4.14293088283438
H         4.43862317690305       0.40462985391704      -2.84219564177120
H         4.36772265110441       1.95591725227521      -3.69339791844450
Cl       -1.40364296439825      -1.83752650931945       2.78941814898177
