45
C11H20F6N2O4S2 optimized with DFTB in AMS.
N         0.47570966115045       0.93745402075574      -0.16256866563698
C         0.33101620267232       2.06593983844569      -1.15294774907512
C        -0.85922292228997       0.27682372514980       0.04132302160805
C        -0.79062885695591       3.04129494355507      -0.82354323948412
C        -1.96645148704389       1.24965816309044       0.42692871054958
C         1.00756064481292       1.44308244667389       1.15731083589323
C         1.41215984178909      -0.06245960887819      -0.78319047678224
C        -2.12515862982957       2.32907171833685      -0.63934799854478
C         2.47878391558820       1.82698608728740       1.14299220732773
C         1.67518736068385      -1.30240282152293       0.05963564870068
H         0.14826782975716       1.60360221691500      -2.12764572955598
H         1.28626993269328       2.59272635969423      -1.18487245885757
H        -0.73547895062654      -0.47889306555797       0.81903346508697
H        -1.11263442916974      -0.22080594807481      -0.90010969645848
H        -0.84848192602945       3.75168028114562      -1.65194313453941
H        -0.55523061854382       3.60515012454615       0.07835460275103
H        -1.75627338700489       1.70773360109690       1.39508030098583
H        -2.88810799013640       0.66919528265405       0.52020632121172
H         0.41081166818893       2.31383591051306       1.42612007734690
H         0.82958038460677       0.66094782887890       1.89836593530259
H         0.97073702829915      -0.35968540186005      -1.73820359620958
H         2.34823072011982       0.46034817195915      -0.98896401070405
H        -2.87896636355139       3.05130240282679      -0.31980172247210
H        -2.45353981689949       1.87798486733512      -1.58229256684187
H         2.67751563881353       2.34506394024034       2.08006578509956
H         3.13466872646075       0.95920435880766       1.08500241667607
H         2.71177605550672       2.51372964244193       0.33261928210527
H         2.43493766093708      -1.89325472590395      -0.45172620906861
H         2.04793759676811      -1.05229570947937       1.05028724026399
H         0.78107905657108      -1.91487915157374       0.16232970662541
N         0.16337919080069       5.84972083291967       2.87792691175046
S        -0.74830257590482       4.61123463313230       3.30883917555333
S         1.02283966501739       5.75522549371528       1.53458931550515
C         0.31869686211732       3.60068980201545       4.47337632969712
C        -0.10006764180975       6.41123172630452       0.18186978193289
O        -1.80675731579180       5.09955597821232       4.14580973257495
O        -1.09616814830111       3.65515532901341       2.26479792815368
O         1.35570794292347       4.41419438736516       1.07254018467630
O         2.08618709389270       6.71588914756352       1.61203489643321
F        -0.44941701423613       2.82282423599763       5.22120569852627
F         1.04576203078469       4.37394942663083       5.25822515107438
F         1.14237857662894       2.81330726842156       3.77555054033954
F        -0.12539695737010       7.72999450392968       0.18255086833044
F        -1.33785628103725       5.95776972692919       0.33258592307391
F         0.34942107384759       5.99041504535063      -0.99942874282533
