36
C10H20F3NO2 optimized with DFTB in AMS.
N        -0.36456803601596       0.29116360946765      -0.39086861238990
C        -1.61696515866465       0.36750743811967       0.45900479552143
C        -0.72427760050336       0.51370104634311      -1.84778658821570
C         0.24189776601581      -1.07594806370855      -0.25132822047689
C         0.57950860150580       1.37161424048804       0.05652615301016
C        -2.54874506616668      -0.82939864559034       0.35623458722138
C        -0.96101570236903       1.96262066248381      -2.24325915968407
C         1.62881850239981      -1.24572440599212      -0.85768896428947
C         1.17326830048219       1.19590013988636       1.44793683010269
H        -1.29654900074520       0.48530628659324       1.49539600470937
H        -2.14472733984727       1.26764741688349       0.14191683536285
H         0.08864452556582       0.10274541401435      -2.44895599464292
H        -1.63067942601287      -0.06367047406368      -2.03395459221646
H         0.27464344088981      -1.30967959430483       0.81540470917039
H        -0.44719297978833      -1.76908439179026      -0.73778549472829
H         1.38058051987516       1.42704620071222      -0.68417149094961
H         0.01436102515416       2.30492397154521       0.02983815814461
H        -3.46989126889542      -0.55266118053080       0.86831604256868
H        -2.80837043746903      -1.05644366826127      -0.67491632028533
H        -2.13644430004465      -1.71547597723802       0.83853913408562
H        -1.45194296442778       1.94896753569033      -3.21546526385458
H        -1.62997166766186       2.46710032659184      -1.55187025999894
H        -0.02801000481268       2.51899514574785      -2.32899654788534
H         1.90995967580661      -2.29178040483682      -0.73522128809482
H         1.64253800026238      -1.01535694651264      -1.92122252040858
H         2.37611823499110      -0.63406362048505      -0.35658766860184
H         1.84662555117090       2.03596614925876       1.61874258807340
H         0.40939809616707       1.21538585003894       2.22274511590249
H         1.74761445351268       0.27688751157641       1.54371245248320
C        -4.57784829564693       1.64318249787729      -1.43126898598663
O        -3.54961407593414       0.97344964762715      -1.60458672569598
O        -5.75923574800056       1.40957765930462      -1.53230412161651
C        -4.19461695356353       3.15924022867940      -0.92902751250023
F        -3.59918376014577       3.88298209281535      -1.90399090879412
F        -3.26517388305309       3.09185637752190       0.07866629303049
F        -5.20572617473053       3.89012256574735      -0.45615770057054
