28
C8H18ClN optimized with DFTB in AMS.
N         0.04516506740475       0.15824244115762      -0.12210226722316
C         0.92261884488494      -0.54565100153596      -1.11180461161865
C         0.99416357437290       1.08893195188829       0.57616817120405
C         2.26076983669297      -0.74679845177250      -0.40115696362292
C         2.28487196307633       0.29579739335944       0.72877032348847
C        -0.51876340816296      -0.81813961352560       0.87689303189719
C        -1.02493973483555       0.92217270417321      -0.84423369849901
C        -1.58724950922968      -1.74426509477426       0.32103777388469
C        -1.94908152731766       1.71341555753142       0.06786356381383
H         1.03746915138866       0.10917983349048      -1.97872502641466
H         0.45386387028895      -1.47698556857351      -1.42829931185515
H         0.55477746886380       1.39836658688841       1.53259232434543
H         1.13991049869080       1.95610637129950      -0.07209368014505
H         3.08156734436773      -0.59752266975997      -1.10491729528181
H         2.33889082741605      -1.75905165743324       0.00027236098502
H         2.32519712763699      -0.19263723343594       1.70418825688805
H         3.14729512801772       0.95885824124606       0.64581654938816
H         0.32346808803120      -1.40484090060554       1.24800509656396
H        -0.91809104957993      -0.22530897491399       1.71064974973946
H        -0.51036698804156       1.60158783076468      -1.53003738531174
H        -1.58974974935419       0.20025087866679      -1.43971151672463
H        -1.82583616454698      -2.46674616817534       1.10133784903655
H        -2.49984191442916      -1.20517538719630       0.07292272322936
H        -1.24896024924918      -2.29208641284006      -0.55872444680227
H        -2.64224489540473       2.26943283657140      -0.56329608272462
H        -2.52118607988722       1.06414847938585       0.72597762301052
H        -1.39313191017957       2.41523744887530       0.68510758497442
Cl       -0.89277933911543       1.42891938944378       3.12890978817451
