64
C18H26F18NP optimized with DFTB in AMS.
N         0.58731402713413       0.49370233362898       1.14573892956529
C        -0.57466829662502       0.34625640219204       0.20891811055287
C         0.03202404758276       0.68777641882097       2.53119686060956
C         1.50290354042940      -0.70131129509536       1.10150181252605
C         1.32511928452910       1.75111939350516       0.75600362667885
C        -1.48250992434822      -0.82079250510752       0.58319325900166
C        -0.86274748017032      -0.45696912014615       2.98139355506403
C        -2.01909161871352      -0.66054269936374       2.00576439035632
C         2.06191278836105      -1.02083823105289      -0.28202468545595
C         2.65223372172638       1.97703400738040       1.48340245933116
C         3.07097011890364      -2.17182906365235      -0.16656710133375
C         3.08213486776409       3.43450020296721       1.32326910028114
C         3.57540470510124      -2.60003877263920      -1.54166146837461
H        -0.18350097272771       0.22529606387629      -0.80256124505321
H        -1.13570478892434       1.28431570250208       0.25347268517868
H        -0.53809831163989       1.62114068036116       2.51149482134881
H         0.87057277639548       0.80256891377559       3.21301082458726
H         0.94726061599452      -1.56049214910152       1.47706346509203
H         2.31263569535946      -0.50238027865236       1.80149227146204
H         0.64116664857810       2.58076358405720       0.95721253524262
H         1.49259351598013       1.70723253529281      -0.32303622550815
H        -0.94712795794676      -1.76822151051997       0.48413977427322
H        -2.31157729192069      -0.83222252206741      -0.12941808741523
H        -1.24750881146489      -0.19357865295430       3.96952583554358
H        -0.28666701290407      -1.37734543413862       3.09230837040519
H        -2.69215307991189       0.20236839655922       2.04532312810836
H        -2.58895333476819      -1.54954589361741       2.28466040143641
H         2.56184216342228      -0.14882919944097      -0.71170893151556
H         1.25730815049047      -1.31948514571476      -0.96106048206734
H         2.56148415074583       1.74727835348020       2.54640324247978
H         3.42495853841258       1.33056721815086       1.06248932673885
H         2.59643893380255      -3.02160470287143       0.33348641692439
H         3.91579674034806      -1.85010801443762       0.44719869437643
H         4.04139148547690       3.58117167147970       1.81736059646425
H         3.18786834101586       3.69278322922305       0.26887969029510
H         2.35078948670219       4.10412514082652       1.77728103790208
H         4.07680871866324      -1.76979871493955      -2.04099992560116
H         2.74927230069950      -2.93549684634335      -2.17058402502291
H         4.28495057101968      -3.41962345527787      -1.43338005377504
P         3.63663389889727      -0.74148203226213       5.00579898224443
F         4.24873492702575       0.78240222936588       4.65303895286021
F         4.92977272848256      -1.05736392382119       5.99108540491713
F         2.26672509277776      -0.47311868076344       3.96474833866361
C         2.64713392128235       0.21079082724284       6.41660656917746
C         4.57333096664281      -1.29356577523402       3.35893960367183
C         2.95527360298480      -2.57971035461141       5.41484149320066
C         1.63120446886159       1.30118015768043       5.95693078947146
C         6.07938495045376      -1.65053221484383       3.41105947108872
C         1.55222425128785      -2.99476017675813       4.89923742408976
F         3.53670244004931       0.82308970906604       7.21041252024822
F         1.91670091227459      -0.61193111177520       7.19158535853664
F         4.47766931804999      -0.27890736132858       2.46159004001844
F         3.93568498739045      -2.32951015505045       2.77247964456142
F         2.94726595839833      -2.77772003928977       6.74396446104133
F         3.83481804709052      -3.46919565964828       4.91206314437982
F         1.34508714978800       2.12682269929741       6.95967606254689
F         0.48195160481549       0.73076578598702       5.56734917541445
F         2.05494744977487       2.04831119771903       4.93369954557649
F         6.78652896148414      -0.63280414093512       3.88899113312236
F         6.31318432481773      -2.72034981627379       4.15834461721494
F         6.52086014345669      -1.90866935895338       2.17315603761227
F         1.22535037314006      -4.21914139075205       5.30321139664553
F         1.49191580557428      -2.98590487837164       3.55953980949346
F         0.61182256372595      -2.15517144463128       5.33827171799939
