24
C6H11BF4N2 optimized with DFTB in AMS.
N        -0.09811947769244       0.74200247197899      -0.00331549827057
N         1.96388873418748       0.45416730823783       0.53203898434917
C        -1.30634192586674       0.79878239873493      -0.82147571400138
C         1.04303301754253       0.18572233685841      -0.39036122489970
C         0.09477799644326       1.38648127299785       1.18815018533232
C         1.39906784162111       1.20514119214681       1.52700377708920
C        -2.39642606393533      -0.08320333697843      -0.22854532033167
C         3.37430009618035       0.13212928490606       0.38559301429280
H        -1.61816236567782       1.84505776289351      -0.86797531299242
H        -1.02604228229300       0.47081233315065      -1.82536133064771
H         1.20195620253966      -0.35164159766384      -1.31041845485086
H        -0.69310128769373       1.92538427381565       1.68432286421465
H         1.96174821395877       1.54793250835222       2.37761530133621
H        -2.06188228584226      -1.11930385886608      -0.17938448549174
H        -3.28149770779083      -0.02890629473743      -0.86055867081168
H        -2.65967602912925       0.24932613101509       0.77568990698179
H         3.51416988431914      -0.94662999498359       0.46099478910112
H         3.69302022341795       0.48179600878262      -0.59916820772302
H         3.93735954508179       0.63664063899260       1.16783377399632
B         1.41873270175806       1.57440241342992      -2.90158051443279
F         0.71076795621205       2.37600374945384      -1.98391943343541
F         2.61646214164222       1.14117950928789      -2.26241150082691
F         1.68454339319748       2.22935304150221      -4.06636337801829
F         0.62963532771952       0.40655133259228      -3.12307748285940
