39
C11H14F6N2O4S2 optimized with ADF in AMS.
N         1.99583205342772       0.36255760627199      -0.31249923665115
C        -0.31067888551923       0.81093789086569      -1.10176371472063
C         0.56583374381815      -0.00453888322462      -0.16371844273673
C        -1.78430128631775       0.44185325022210      -0.94944916447127
C        -2.66525439585169       1.27865644120489      -1.87431487015206
C         2.48282569842248       1.41571867498547       0.37873654402368
C         2.75663144690414      -0.28906428202741      -1.21722416034563
C         3.79678589770761       1.80630400399349       0.22139803189008
C         4.07731856062444       0.06424533149546      -1.40531051991063
C         4.61053672471790       1.11772563881322      -0.67216198174224
H         0.02536008774269       0.64883159377559      -2.13883378391726
H        -0.15463255931631       1.88237636995179      -0.89349046308186
H         0.48982665408835      -1.08433205518373      -0.36348533954238
H         0.30118327222257       0.16149857971982       0.89213718205651
H        -1.92415068340394      -0.63213993402313      -1.17137380568420
H        -2.09954537379552       0.59073552988883       0.09976106122631
H        -3.72393612744222       0.99760571825204      -1.77524437078606
H        -2.56900203751482       2.34977310083272      -1.64102271055460
H        -2.36922509882672       1.14167679093801      -2.92588668393678
H         1.78334658532913       1.93161665558402       1.03125305348718
H         2.26610318461444      -1.07099982988616      -1.79118883914318
H         4.15930302388503       2.66920463881415       0.77820248162300
H         4.65924865139978      -0.46362869420988      -2.15918008873580
H         5.64662621769853       1.42295383257680      -0.82284189647917
N         2.08050081738573       2.38364156048842      -2.64194754747028
S         2.37633062670142       1.84182295632597      -4.12768722496766
S         1.85953472958009       3.92770239818007      -2.22442232442579
C         4.15499788368363       2.32583652992447      -4.57624793956950
C         0.29349911532496       4.56446242380299      -3.09063780501643
O         2.46077620188953       0.38247022754373      -4.00171877932188
O         1.57100136831717       2.43196739736477      -5.18650639491658
O         2.91089296079008       4.84130376625261      -2.65159777855447
O         1.46207630191895       3.88737368889382      -0.81160437593152
F         4.59070605958627       1.50506729651032      -5.56372521904236
F         4.99112215943609       2.17398741171426      -3.50882303159802
F         4.23167484090699       3.59619573956631      -5.00312499514076
F        -0.18899705262633       5.61135796133913      -2.37549636006111
F        -0.66127346111089       3.60185112945504      -3.12949251460243
F         0.55340263970155       4.98237854500693      -4.33898558829632
