59
C17H34F3NO3S optimized with ForceField in AMS.
N        -0.01848539313614       1.98928065042039       0.01509323392766
C        -0.69019334678504       2.89857472431143      -0.96398966292157
C         0.63223726248146       2.90077622839374       1.00696764246549
C        -1.03609672749113       1.14112158801142       0.71743909506719
C         1.01762322775280       1.17379783271807      -0.69926670945451
C        -0.19948209039733       4.31150437418085      -0.71270033516472
C         0.14083057884105       4.31293501064540       0.75065441692728
C        -1.77581490241616       0.12980590046330      -0.19116425305042
C         1.78270241897990       0.17006783489962       0.19661465552096
C        -2.87752179507678      -0.59267623866266       0.59509942564337
C         2.89403620547794      -0.52564748100610      -0.59979529949538
C        -3.62858317810742      -1.59667399581043      -0.28723286613697
C         3.65949680480139      -1.52797908239697       0.27212273725771
C        -4.69377550372103      -2.34515661986316       0.52302128511061
C         4.72937550434622      -2.26056376118850      -0.54598487727803
C        -5.44959056278802      -3.34532120636573      -0.34654094859042
C         5.49428084680623      -3.26140756911006       0.31504625344800
H        -0.50477194100017       2.61806740444176      -2.02638976084424
H        -1.79695652347875       2.91324227133353      -0.83551008791532
H         0.42957558555341       2.61845419613458       2.06562420593976
H         1.73993165586348       2.91977041293257       0.90091058260040
H        -0.56477141963801       0.57924310480105       1.55377084856161
H        -1.79617712345714       1.79907610461338       1.20027019677879
H         0.55770773971865       0.60998121750588      -1.54070750560239
H         1.76031900722942       1.85431362684152      -1.17669681115518
H         0.71575592348633       4.50800961141120      -1.31434390852807
H        -0.97619607670948       5.07022331082537      -0.95360869889527
H        -0.77486917531284       4.50967054775299       1.35161560214931
H         0.91637834346858       5.07326684015363       0.99032764198758
H        -2.23186000701900       0.64714981096424      -1.06123664409764
H        -1.06593096412690      -0.63415045875345      -0.57071799937507
H         2.23443988028757       0.68812415491441       1.06832247358466
H         1.08973931270244      -0.61008680957804       0.57417219454319
H        -2.41824285287626      -1.13039262710467       1.45400275476598
H        -3.59915838274521       0.15489359852847       0.99229244186552
H         3.60394669644754       0.23738008286855      -0.98895874575070
H         2.44180291700521      -1.06090432483070      -1.46400314041655
H        -4.11670477517236      -1.05473917154134      -1.12729877990211
H        -2.90693632518274      -2.32979993488967      -0.71069782332273
H         4.14469263856662      -0.98668418370789       1.11430706608686
H         2.94717947511510      -2.27174585129636       0.69301363781274
H        -5.41954259838196      -1.61891983498173       0.95011727905479
H        -4.21008304265206      -2.89246381699572       1.36155944982248
H         4.24888287958927      -2.80555241680643      -1.38789415552274
H         5.44818595413720      -1.52471883126992      -0.96825095898621
H        -5.96960935195977      -2.82000347593081      -1.17572817851329
H        -6.20743506023415      -3.87481038960157       0.26873893125802
H        -4.74865291111871      -4.09624376038639      -0.76945724546974
H         4.79995564031188      -4.02165042732547       0.73237151951816
H         6.25617415463592      -3.77972286040836      -0.30465384466229
H         6.01009466473135      -2.73850655471684       1.14838076868952
S         5.93800395954051       3.71851422175484       0.80443512091548
O         5.36239387503395       3.28833700598867       2.16173482789842
O         6.54612160255415       2.42014153486791       0.25380869401799
O         7.17212691078849       4.54605231760595       1.19334150838117
C         4.76896192970127       4.55268628942886      -0.30137689666686
F         4.26155671976945       5.67388860067357       0.32651806630086
F         3.73638365875923       3.69085768915511      -0.61285424477123
F         5.42021551620055       4.92744206538673      -1.46055449811192
