51
C13H24F6N2O4S2 optimized with ForceField in AMS.
N        -0.55461812083337       0.09213305672600      -0.09494377829582
C        -1.55071098911450       0.53967229713561      -1.12267500101643
C        -0.90002490619474      -1.30331066556212       0.33351476583340
C         0.78151946399134       0.07028495279039      -0.78436913253786
C        -0.54252972215663       0.99700802549722       1.10769958520461
C        -3.01280981859504       0.45277838980546      -0.65839652532840
C        -2.35542981975201      -1.46850197614515       0.81830554271275
C        -3.34965384786540      -0.97096613339668      -0.22695222213225
C         1.99641814209177      -0.30052817658103       0.09949027981365
C        -0.13959338919713       2.45792313338264       0.84117848601827
C         3.27662889976556      -0.33437693818902      -0.74572761641899
C         4.48732544979168      -0.71070131856575       0.09897971104562
H        -1.46703811051623      -0.09360054648138      -2.03742285038708
H        -1.34435890014449       1.57390311397368      -1.46923794109772
H        -0.24414723633477      -1.64001457056572       1.16500976518195
H        -0.74552240523894      -2.01925669025957      -0.50673640614210
H         0.98924208540075       1.05539985191867      -1.25884616206024
H         0.75662440777576      -0.65420641152224      -1.63167336273746
H        -1.53545935369403       1.03367072155226       1.59555194154344
H         0.13160749128970       0.59293539894054       1.89368307052409
H        -3.67486175075182       0.73584889698932      -1.50526135641026
H        -3.21741851150255       1.17002402427588       0.16282033758876
H        -2.51694019348555      -0.94001969427212       1.78077593134557
H        -2.54992498987302      -2.54557505160068       1.01219372959189
H        -4.37750192496217      -0.99726245778686       0.19435508251002
H        -3.32267474688872      -1.64384577893306      -1.11248356407695
H         1.85646915401158      -1.30091791082378       0.55728614724466
H         2.13634175569978       0.44905349145483       0.90561008035726
H        -0.15617127049834       3.01145856730258       1.80393075725821
H         0.88785521081756       2.53893278622711       0.43557420993778
H        -0.85885678487188       2.96409036487400       0.16761243152116
H         3.45361001426860       0.66587994373258      -1.19801609401109
H         3.16847735805993      -1.07825603164794      -1.56493299521129
H         4.34847173089694      -1.71976616952918       0.54307583380068
H         4.63140488269360       0.03506547781123       0.90924228898270
H         5.39732702709959      -0.72525639723730      -0.53725555439304
N         8.55937613012528      -3.22692907818087       3.25371385782360
S         7.86498179118778      -2.15758662925527       4.28471483121808
S         9.44928450736830      -2.76304935382908       1.95643918496148
C         6.20874715122560      -1.81230562331565       3.73439996216636
C        11.17733248572485      -2.86226520391011       2.37397421519675
O         7.80421587903752      -2.76021584922104       5.65961671691414
O         8.65291348696770      -0.87781752350614       4.33069967976952
O         9.11028464021672      -1.35566547339065       1.54982001700359
O         9.17589522843288      -3.69525492811219       0.81006684143478
F         5.60012100150374      -0.93083318868952       4.60731400883090
F         5.48080575020764      -2.98605580461609       3.68546823678902
F         6.25639149820260      -1.25023746481144       2.47614588791790
F        11.94023266301277      -2.46037236892715       1.29412904602733
F        11.49872181974459      -4.16579555223361       2.70148110401703
F        11.44197493195917      -2.04095044569166       3.45307500317003
