28
C10H16ClN optimized with DFTB in AMS.
N         1.81177430043321      -0.05047184529227      -0.43545032605735
C        -0.58056461257275       0.07192846618479       0.11002584717506
C        -1.99695320562719       0.06335630212774      -0.47077124536403
C         0.46645703307410      -0.04701811323197      -1.00311255096026
C        -3.05159092020992       0.18419158404617       0.63389576872723
C        -4.46599296590753       0.17679024706060       0.05656573143725
C         2.53621421875651      -1.20650882977850      -0.38420837709951
C         2.42261265931256       1.20037915718922      -0.22434507472165
C         3.76971020246331      -1.24142317723104       0.17263443601212
C         3.64262489553628       1.12402503452351       0.58848346004313
C         4.31049990175619      -0.03735559669069       0.72364211358479
H        -0.45705475237170      -0.76314383020633       0.80686238452127
H        -0.41543254972144       0.99979106378593       0.66650155928425
H        -2.15636512389411      -0.86617104796571      -1.02828684673772
H        -2.10656929650105       0.89648471966972      -1.17352757896256
H         0.31776285344649      -0.97657581675630      -1.55991682894213
H         0.38663757997843       0.79471266091009      -1.69936237646293
H        -2.89014385834252       1.11361509143432       1.19034203047299
H        -2.94007769563902      -0.64920321018347       1.33579006359261
H        -4.60278961028691       1.01294013276817      -0.63053876289096
H        -5.19797315081714       0.26382521954756       0.85974058079263
H        -4.65306143808981      -0.75143557695162      -0.48516335597913
H         2.03722300766490      -2.09477673692054      -0.75556049698581
H         1.70276283728721       1.94431826236981       0.11671471454532
H         4.31896297969045      -2.17023167776070       0.23795675241233
H         4.01531119288965       2.05720439440154       0.99163843342417
H         5.23831191314358      -0.08588184380134       1.28203948574010
Cl        2.88811121184820       1.92387413125132      -1.94689279270121
