55
C17H18F18NP optimized with DFTB in AMS.
N         2.06861068168129       0.80372220813028       0.71213160156711
C        -1.55573411253510       0.28947508805870      -0.34513823251713
C        -0.35942809957451       0.49049930528089       0.58583006636883
C        -2.82559745667902       0.04904408686807       0.47829294971671
C         0.92925081739466       0.71811403679852      -0.21154486725797
C        -4.03875804808961      -0.18868679228449      -0.42542878054517
C        -5.30203355711189      -0.42987611396289       0.39902347355082
C         2.84601855735878      -0.27121182773567       0.91577861851603
C         2.25489528596340       1.93519466410827       1.41095087029425
C         3.85507621572180      -0.23872700495725       1.85494087709331
C         3.25709521732433       2.02018536963053       2.35237382692534
C         4.06319262560318       0.91624390248770       2.59676233626159
H        -1.37142190363105      -0.56959348628704      -0.99967895059355
H        -1.68467181008820       1.17350965700928      -0.97942758214985
H        -0.53296545758603       1.35052750606183       1.23667058332348
H        -0.23415675342220      -0.38862037310559       1.22065469577750
H        -2.67495588807005      -0.81910921231706       1.12780905747580
H        -3.00965478380409       0.91674583417413       1.11991922369835
H         0.87935767277289       1.65200125618476      -0.77772183883770
H         1.11289374145677      -0.10867490554410      -0.90179827273637
H        -4.18662692679148       0.68142562578960      -1.07455662940249
H        -3.85076296663377      -1.05634224207659      -1.06728574642793
H        -5.51615148431475       0.43314277609657       1.03061141284993
H        -6.15309777041065      -0.59761105802620      -0.26133797375457
H        -5.17909046615237      -1.30516872630870       1.03789009325429
H         2.63047542904098      -1.15422414313719       0.32740531188893
H         1.57834814207366       2.75580189274863       1.20906096777276
H         4.45097202749329      -1.12664684223135       2.02165316791182
H         3.37397578704421       2.93377876053856       2.91978203948164
H         4.82474420392366       0.95005048623198       3.36542621296452
P         0.67154820566831       0.20353133904328       4.89500037090093
F         0.29905931835974       0.79693137909751       3.32988388653820
F         2.24342117110511      -0.09337925815563       4.30264440354873
F        -0.88340816379670       0.49176381541061       5.44340621523828
C         1.11641721504392       2.07429816974124       5.31264805994293
C         0.02572821915335      -1.53077469365517       4.22091640345755
C         1.30526958799813      -0.49376332927589       6.63895506772169
C         0.33430475668919       3.19528618173396       4.56858279581334
C         0.96187593108367      -2.44942588710209       3.39396518493605
C         0.38845092969863      -0.58961373997526       7.89034921234264
F         2.42173334458983       2.34105347528098       5.06987222267258
F         0.90672955122614       2.28766803860396       6.62058774658282
F        -1.02844382499514      -1.30368093833583       3.40740708163914
F        -0.43228132659569      -2.26453813885907       5.24668164359201
F         2.37623546315702       0.24151630648838       6.99576640894703
F         1.75931036856100      -1.74418370873173       6.40899791110028
F         0.47130202998699       4.35660727897014       5.20646454426567
F        -0.95869728819713       2.94556523751697       4.44319260602254
F         0.83884733370473       3.37270888629457       3.33049564723483
F         1.25148236063574      -1.85667664543735       2.21505727580967
F         2.11322789039457      -2.72702055453532       3.98664030098284
F         0.35896645683286      -3.60086509431429       3.10587615635007
F        -0.15586104452554       0.58284747632590       8.19765505277892
F         1.10245882196945      -0.99737266409311       8.94200665605703
F        -0.59346713340627      -1.46427453776093       7.70019740595386
