59
C17H21F18N2P optimized with ForceField in AMS.
N        -1.04141674239723      -1.80582205769581       0.23779754945573
N         1.18096884378733      -1.74131126673992       0.26347994406645
C        -2.43265744207166      -1.61303294459637       0.64193782512023
C         2.54953122733378      -1.47534204056237       0.70382862346800
C        -3.03003041888950      -0.36891535966669      -0.02776029248277
C         3.15684732986315      -0.29018875442518      -0.05929990799624
C         0.05505777959762      -1.55763116013968       0.97996016701994
C        -0.59497998501445      -2.16890922218831      -0.98171558181156
C         0.78410218290201      -2.13266111888160      -0.96480589815196
C        -2.32500672283361       0.91642132075298       0.42848924669342
C         2.36365315081244       1.00540213810577       0.16518892229093
C        -2.94816838055940       2.14720963715392      -0.21911499457932
C         3.01465471487559       2.18241578828218      -0.55443875803117
H        -3.02434386078320      -2.50897146750710       0.35523769379751
H        -2.49917050532223      -1.50712031660633       1.74731422137120
H         2.56498371650751      -1.25723028481468       1.79463482140982
H         3.17007950251173      -2.38114397520191       0.53330463736681
H        -4.10815593148214      -0.30956649247833       0.23753150808197
H        -2.95406495099835      -0.46940033431482      -1.13264988786432
H         3.19045486878525      -0.52674153476681      -1.14517890731767
H         4.20222111958917      -0.14643538187488       0.29114437701137
H         0.03246111217847      -1.20046715511216       2.00236953584429
H        -1.22446630993034      -2.41329548184408      -1.82749170724765
H         1.44548528881441      -2.34403375649433      -1.79491170399520
H        -2.39917854350980       1.01362627697257       1.53354148176563
H        -1.25023438095405       0.88045834429116       0.14964031890263
H         1.32818476186241       0.88722057961973      -0.22043005147111
H         2.31062308534774       1.23080939473229       1.25253726056805
H        -4.02026773269190       2.22995965140592       0.05953886060229
H        -2.85844332605536       2.08731780682488      -1.32487410768765
H        -2.41836956860284       3.05848463023830       0.13053356862204
H         3.06412270922523       1.98665823575803      -1.64689223586683
H         4.04058795486661       2.35357222493111      -0.16470463965091
H         2.41241414745382       3.10003416671161      -0.38582146977117
P        -5.80443166922264       6.50852627000568      -2.54979128658669
F        -5.77386009898367       6.16713520045567      -0.85966474637309
F        -5.92135906556629       5.01752546907183      -3.40598731412964
F        -5.91160553604646       7.98508943270466      -1.67324002263252
C        -7.64914004828882       5.97405702441140      -2.32743230079896
C        -4.00759359279729       5.87614569584746      -2.21052509919987
C        -5.53360771826146       7.73543586438325      -4.00256372835970
C        -8.53861918586347       6.93926596263580      -1.51389637424877
C        -3.08188601370802       5.65683154572827      -3.43419747657824
C        -6.69478697649898       8.67667180456206      -4.37195246191662
F        -7.68886000174809       4.74914093575374      -1.67110268707513
F        -8.24824776065858       5.78429148585981      -3.56274426269119
F        -4.06895857623784       4.65304030545588      -1.55321908158634
F        -3.37056175901113       6.77853424081365      -1.37212583143851
F        -5.22621486100845       7.00209425593001      -5.13466055036776
F        -4.45088440846559       8.54734811190331      -3.70723523801793
F        -9.80117291789051       6.38696491158214      -1.38958879698526
F        -8.67089156049777       8.15663143685772      -2.14435640316915
F        -8.03536820451605       7.14155032016473      -0.24194397839110
F        -1.94131280337334       4.99630333677002      -3.01143472062342
F        -3.67825721744775       4.87951445245327      -4.40862184890412
F        -2.67709826175345       6.85284056542214      -3.99007032219929
F        -7.84547230596124       7.97655235631483      -4.66205617274251
F        -6.34308484352472       9.38852363145211      -5.50539356793496
F        -6.93684760378657       9.59222791459145      -3.36461949468202
