41
C11H24BF4N optimized with ForceField in AMS.
N         2.00699970496010       0.44130105600882       0.09891046330940
C         2.26494552545524      -0.86206454374542       0.76978963888858
C         3.11688669434969       0.61362475733630      -0.88712540725458
C         0.69849228555156       0.43574008776223      -0.62491192712889
C         3.69795189643494      -1.25897038077697       0.47933375188639
C         3.97421174006836      -0.64171671061389      -0.86482808686191
C         2.05237502659827       1.54964424519980       1.08793528576215
C        -0.54048038907932       0.20769681391958       0.27312571356538
C        -1.80830883741963       0.09533116921393      -0.58329187663348
C        -3.05492142074585      -0.10107517468791       0.28673163676143
C        -4.31253726948501      -0.21288995029374      -0.58347180625798
C        -5.56168811343610      -0.40218744662692       0.27122974700466
H         1.61588137354591      -1.67042519321915       0.36151837185834
H         2.09063761602272      -0.82816086760895       1.86982865358683
H         3.77372985820617       1.48194336936688      -0.64459536474841
H         2.75803152140495       0.79323030009866      -1.92684790279372
H         0.71146334686406      -0.35945335378411      -1.40653630660803
H         0.56195999249927       1.40375913696645      -1.16080542764337
H         3.82410027739063      -2.36375570665352       0.45508304366032
H         4.37545923120669      -0.82042572059265       1.24463141370726
H         5.05407156982402      -0.41021885302624      -0.99275983426459
H         3.64464259919813      -1.33607895342360      -1.66983217168859
H         1.33062330248006       1.39237012170323       1.91722950151928
H         3.05893461893078       1.62292633492300       1.55735310803144
H         1.82389933474942       2.52462767173875       0.60119717397814
H        -0.42804961387955      -0.72196670967115       0.86936538534885
H        -0.66603295101731       1.05866850050204       0.97299990903301
H        -1.70742444568432      -0.76782217001370      -1.27786423824445
H        -1.92624283338753       1.02199974045076      -1.18735655055490
H        -3.16115910651180       0.76265453620580       0.97957643672257
H        -2.94100122878535      -1.02809797730882       0.89067501931907
H        -4.43047536787167       0.71018259229203      -1.19206222312635
H        -4.21491747708211      -1.07919490061400      -1.27366098318868
H        -5.69760471799043       0.46417107867936       0.95304840498801
H        -6.45261188295360      -0.47917879275219      -0.38741575566003
H        -5.48155581115034      -1.33376511907895       0.87107781182606
B        -1.49075594313660       4.60507457345392       1.30388551394120
F        -2.79843129566786       5.14738404735135       1.41883239307099
F        -1.52239600936392       3.47499842144754       0.44565820522241
F        -1.02549883456992       4.21402125203422       2.58770459828939
F        -0.61746536132276       5.58530710833722       0.76210158857679
