67
C19H28F18NP optimized with ForceField in AMS.
N        -0.70043083759204       0.49445372540323      -0.18746185517617
C        -1.66448529882039       0.24773410642587      -1.30897423846236
C        -1.24732633401274       1.58448594324778       0.68637454535625
C         0.57432647379626       0.98354553544228      -0.81881141632587
C        -0.47213913997868      -0.74370520077310       0.63790067090945
C        -3.09587094019272      -0.07470233521998      -0.84802010154326
C        -2.68052106574629       1.32494134805085       1.19330546140575
C        -3.63583550026910       1.04345944091371       0.03765277563868
C         1.76433090760752       1.20155039939753       0.14822134959686
C         0.18088836000018      -1.93535096514762      -0.10495863973592
C         2.98491649724653       1.73981434204973      -0.60844096894199
C         0.43909752911812      -3.09862781442919       0.86138987236851
C         4.17040316319554       1.93446722147471       0.33087790137523
C         1.08907453106171      -4.27926178936988       0.14505855547051
H        -1.31237384946003      -0.56480062279839      -1.97803190849074
H        -1.73201997846153       1.15146949481937      -1.95945775137246
H        -1.26030608446781       2.55485585878724       0.13809245121039
H        -0.61005566041971       1.73393595575636       1.58420747976126
H         0.38988003408351       1.94981911267425      -1.34372730900339
H         0.90291333757480       0.28734435520907      -1.62244667261521
H        -1.42292970484899      -1.11688661905711       1.06517603421902
H         0.14773033549991      -0.49946798117846       1.52837032454423
H        -3.13934407108015      -1.04828622163351      -0.31794725140117
H        -3.74904652573291      -0.16806236458559      -1.74252911162985
H        -3.03682255774180       2.22535884539097       1.73905883607778
H        -2.69975929563825       0.48544327606823       1.91898793051222
H        -3.76689814999742       1.96728051617802      -0.56812045729327
H        -4.63002420026082       0.75200670334705       0.43955781291145
H         2.05698345508512       0.24623703049193       0.63003716344670
H         1.49568197855228       1.93283648435496       0.93737762143089
H         1.15179600865166      -1.64260352408034      -0.55214654610693
H        -0.48992985330877      -2.29962209896589      -0.90970315363148
H         2.73471263930842       2.71660190448135      -1.07713245394004
H         3.27602240229672       1.02750482716555      -1.41102308804674
H        -0.52122264713460      -3.43474670903872       1.30983671738921
H         1.11199990991030      -2.76351280721153       1.68082331159277
H         4.47656055566692       0.96318118369457       0.77492001774473
H         3.89761206461334       2.63836175077429       1.14397790999291
H         5.02946714236526       2.35572038976168      -0.23241229562874
H         2.06727087930527      -3.97756187795822      -0.28648516009697
H         0.42809893851902      -4.64961118061406      -0.66730406124522
H         1.25990550208189      -5.10439798335619       0.86812184631696
P         5.87393470446774       3.78294363868371       4.17650181337330
F         4.24867092830520       4.31622740159771       4.39629594452795
F         6.01742543090278       2.94816104694153       2.67775498643217
F         5.83857540315914       4.81677189456588       5.55112575323533
C         5.83449026112849       5.18510131170344       2.84435568795781
C         4.89640102350313       2.19890021393511       4.70705932108165
C         7.62667932656016       3.44281210885045       4.88950504310271
C         5.75775920030623       6.62794740211527       3.38827626728860
C         5.65434482698291       0.84830562320401       4.67362000656468
C         8.63285112472773       4.60953361551771       4.90844069709615
F         4.72195671942162       5.00522928050735       2.03153396985691
F         6.94602095161551       5.10487483884389       2.01995522318323
F         3.79055625876454       2.03677995909879       3.87801577045417
F         4.43614723016007       2.37693094871838       6.00320795434269
F         8.20169328030481       2.42361866839177       4.15130063283634
F         7.50371407140144       3.00722810638426       6.19908815639075
F         5.65754885717839       7.50384551126204       2.32192040758857
F         6.89053030699861       6.95677978285302       4.09987340821451
F         4.64871486092739       6.80926560539993       4.19407674913145
F         4.74386140404983      -0.17326390755178       4.88103239112836
F         6.26476953016713       0.62337919329641       3.45444240071187
F         6.59587499930165       0.76462943132718       5.67849754859946
F         8.81012432762042       5.15005860401251       3.65365696012120
F         9.85938802963229       4.12852322574536       5.33174249692417
F         8.24370968393724       5.59388168355327       5.79783782007195
