36
C8H14F6N2O4S2 optimized with ForceField in AMS.
N         0.58489147325157       0.00006684081811       0.00752447088805
C        -0.30471237597937       1.07410558945913      -0.51385699180014
C        -0.30916534156311      -1.07076657882350       0.52730872278300
C        -1.72310009836349       0.75017258887106      -0.08050291183818
C        -1.72357128309109      -0.74803760655903       0.08122250633168
C         1.44757156157694       0.52552464832404       1.09192090992269
C         1.44540846239994      -0.52940393635477      -1.07640108931507
H        -0.29314142776313       1.12234900204178      -1.62808783039172
H        -0.02106305204359       2.09039877667557      -0.15441934364422
H        -0.30646705353589      -1.11195989864014       1.64181561613352
H        -0.02332653355343      -2.08927538318103       0.17536494102431
H        -2.47159678313558       1.08224649167011      -0.83282574086381
H        -1.93745831796908       1.23379570850744       0.89849818195360
H        -2.47822399432938      -1.08039713454114       0.82724027488238
H        -1.92888050553156      -1.23185191825167      -0.89961473783720
H         2.13978711105150       1.30728816976300       0.70586480672185
H         0.83466259642472       0.98290644065995       1.90122402674913
H         2.06029960107843      -0.28845778810676       1.54038451496718
H         0.82745355941946      -0.96638048053562      -1.89163237139075
H         2.07333931784608       0.27802430360251      -1.51550209851198
H         2.12281901490472      -1.32641666644480      -0.69478919356899
N         3.45683615469770      -4.24662088658682      -2.53135589000902
S         4.78334143183459      -5.13619289930949      -2.90345234005126
S         2.04144357582908      -4.36831367211910      -3.35108655053092
C         5.79799973200257      -4.21941062213749      -4.04415585547906
C         0.92818047420028      -5.40917552459362      -2.43157982188538
O         5.57431868466134      -5.39386035911385      -1.65204398776900
O         4.38712205274531      -6.44717892252728      -3.52436835934152
O         2.26257838630002      -4.95143284589266      -4.71924765249178
O         1.42701064787133      -3.00430121405036      -3.48418439259496
F         6.92511942687801      -4.95409343406470      -4.35962931925242
F         6.17852712801494      -3.02441620410079      -3.46372050033411
F         5.08226428611900      -3.96059697975580      -5.19700560546830
F        -0.27257223061039      -5.51914933872086      -3.10666908989735
F         0.70359249191225      -4.85620117734056      -1.18507801253596
F         1.48728919554933      -6.66366228694083      -2.28268420465427
