36
C8H20F6NP optimized with DFTB in AMS.
N         0.28153387074515       0.22384068936760       0.03343510378152
C        -0.77819370108544      -0.18972067646559       1.01419603023245
C        -0.31938390826842       0.76938075898618      -1.24257378526895
C         1.12063418747859      -0.98234600041574      -0.30586594293423
C         1.11869764364676       1.31083499609858       0.66065647019853
C        -1.78227932386853      -1.20973079108397       0.49553777342554
C        -1.39082705598976       1.83123468818141      -1.05368689761287
C         2.33027056167336      -0.70853670307661      -1.18630871924655
C         1.86952295905721       0.92177070705164       1.92243992196762
H        -0.26306034280336      -0.60602265152445       1.88248194896168
H        -1.29655655599190       0.71943050220267       1.32614485377025
H         0.50571185028989       1.19931357262429      -1.81092293399382
H        -0.72510533409710      -0.08081363363590      -1.79611409743830
H         1.43792563205538      -1.42615780576734       0.64094810257408
H         0.46126556183333      -1.69072454144478      -0.81231707727694
H         1.82929679689955       1.63818044772276      -0.09536439131024
H         0.44680653241757       2.14275814759590       0.87465504789376
H        -2.51511275358141      -1.37780288084818       1.28479220242411
H        -2.30959997363215      -0.85426307797348      -0.38690809840432
H        -1.30885895008862      -2.16244928280365       0.26513308412825
H        -1.67817929258854       2.16943805370432      -2.04923197700850
H        -2.27878229422669       1.44845385175915      -0.55295011146478
H        -1.01005402759480       2.69209532127907      -0.50956913484479
H         2.84632335104649      -1.65783530562558      -1.33148290010888
H         2.04011131110913      -0.32129713293390      -2.15974282492811
H         3.02329263482524      -0.00765264428053      -0.72796790974341
H         2.46751412036167       1.78869715536454       2.20486479141378
H         1.20299142327857       0.68217589073877       2.75001263447758
H         2.54821812537257       0.08700607731195       1.75650904567502
P         2.49773701150095       3.61525748746511      -1.88088335435586
F         3.94802993139079       3.63182153264691      -2.61310432904239
F         3.21169686425244       3.18433029675189      -0.44040223908778
F         2.59865760197103       5.18734250705305      -1.48763422901088
F         1.00107530009559       3.51371621003020      -1.10903405464660
F         1.72890757649184       3.95294543248726      -3.28026499227568
F         2.34966507182361       1.96127380535643      -2.22752966372027
