53
C15H29F6N2P optimized with ADF in AMS.
N         3.15463304265530       0.86853849277260      -1.70360564084273
N         3.10037935084921      -1.29904341793876      -1.77887734570697
C         2.03278537411865       3.01057254098955      -1.17466090979927
C         3.35426679255436       2.24915711954516      -1.22458613762401
C         2.11391191157263      -3.04372333256096      -0.30833660867604
C         3.16341864392261      -2.71397968484297      -1.36540213606636
C         1.01394334622179       2.33006810492497      -0.26926016859988
C         0.70345074224775      -2.59418801137290      -0.67437501073294
C        -0.30807278307287       3.07537291730987      -0.14508689998788
C        -0.27251722279217      -2.78988617078245       0.48245357984199
C         3.47556411938981      -0.24749962930666      -1.03399192632438
C         2.54143051191674       0.52338129732753      -2.89048312283466
C         2.50397968250200      -0.83932466892071      -2.93519037665638
C        -1.27545649055743       2.32790148964373       0.77214974445313
C        -1.64294550156406      -2.17920617100555       0.20326743958284
C        -2.60363878316675       3.05175622979929       0.96233792461960
C        -2.59295877158910      -2.31463541787802       1.38953846742233
H         2.26529106422332       4.02383830548865      -0.80179926982778
H         1.62862955532694       3.14587551038020      -2.19527934325246
H         2.40982485859818      -2.57207822954596       0.64061416984198
H         2.14839138686931      -4.13633878746605      -0.14957475401081
H         4.08319670389504       2.72816038542067      -1.89702080595570
H         3.78359109539057       2.16157164578952      -0.21753369151574
H         4.18021647085212      -2.90643481256449      -0.99226023832063
H         3.01869110612242      -3.29675471666727      -2.28744292653658
H         1.45397721933015       2.19552103934411       0.73172387267063
H         0.81220744757145       1.30911894970615      -0.63819363295145
H         0.34332230074913      -3.12248105750567      -1.57917598588302
H         0.71914603453351      -1.51606038045576      -0.91496967829037
H        -0.12798914263549       4.09036926779217       0.25817932164676
H        -0.76799685843838       3.21117602390988      -1.14364112719741
H         0.15794566631121      -2.31251790040740       1.38013981832715
H        -0.38004123479413      -3.86715297783260       0.70991654687876
H         3.90078608659872      -0.30042952918574      -0.03384682018310
H         2.17855828397131       1.26737767647530      -3.58755697504263
H         2.09918760838782      -1.51599430687241      -3.67744868825704
H        -1.45621464192123       1.32035624567283       0.35631299363057
H        -0.78590188824256       2.16567025937069       1.74902501805600
H        -2.08845796153256      -2.64766436994060      -0.69505730215304
H        -1.50682369088298      -1.10806034638486      -0.03345654410204
H        -2.44752232087906       4.05065203977927       1.40113694131306
H        -3.12558861888282       3.18712727815828       0.00056566935780
H        -3.26934397284345       2.48857837886823       1.63372324911317
H        -3.57707792731720      -1.87448028873062       1.16963544355553
H        -2.17913798298949      -1.80481012259959       2.27414984427184
H        -2.74477274897148      -3.37373037337175       1.65448108274684
P         2.71981687900676      -0.09013479443528       2.58196075860360
F         1.93129138724726      -1.34876902381299       3.27666932298090
F         1.76467960477949      -0.27067938844623       1.21404562218381
F         1.64033622007198       0.99154365341799       3.17674087889454
F         3.53345173504581       1.15396829191313       1.79281179228906
F         3.69442432543369       0.08305785324792       3.87606009051241
F         3.82090144560616      -1.16105586071343       1.88336626403698
