31
C7H13F2N3O4S2 optimized with ADF in AMS.
N         0.96259429561655      -0.61278355314906      -0.17380128163097
N        -1.12044879868519      -0.55623253604803       0.44556776338517
C         2.22030010692650      -0.28214557973989      -0.87532077140472
C         2.86422486599227       0.97609002728812      -0.30507214885072
C        -0.24010538891348      -0.09800251108921      -0.45902374230520
C         0.85599490236530      -1.41420522362673       0.94301115995473
C        -0.45285737518391      -1.38013758480845       1.33055512106077
C         2.07407658292635       2.25405786637138      -0.55319846595086
C        -2.53779494703994      -0.22122267980425       0.50338899387778
H         1.97091754329386      -0.17622432064234      -1.94297802563205
H         2.89440213646895      -1.14048837320077      -0.74264888994619
H         3.03584540722705       0.81762000850410       0.77128680365661
H         3.86534494528024       1.03730517794503      -0.76290152427007
H        -0.46510468724226       0.57298976571726      -1.27749389141240
H         1.71185975373351      -1.93996343553888       1.36151506621842
H        -0.95945491682876      -1.87177789637883       2.15257443698328
H         1.09565782383620       2.23594235608856      -0.04565696516839
H         1.90820004426510       2.43176959354222      -1.62890967962296
H         2.62194626353486       3.11910290588538      -0.15214823753025
H        -2.79975608003178       0.38292437236259      -0.37191713248028
H        -3.13105632347535      -1.14384807836289       0.49815770368166
H        -2.73895513962374       0.35214161491071       1.41784142666929
N         5.51116879733476      -1.99290527463216       2.94061111979579
S         6.73959325562277      -2.93515149754090       2.42271138292589
S         4.39217739688170      -1.56137765763682       1.92654002677157
F         7.63577479169261      -1.86025387647827       1.54600623697478
F         3.41012389674439      -2.95033843819587       1.75858563291131
O         7.55696579266743      -3.24147422130934       3.57436676308115
O         6.35968706233129      -3.95693883561672       1.46737046491696
O         4.77372707341770      -1.30487089292499       0.54099277572900
O         3.46388799846499      -0.63880989679097       2.57388604261089
