45
C13H18F6N2O4S2 optimized with ForceField in AMS.
N         2.37325029258820       0.03067066848997      -0.53556795736156
C        -1.44405919288403       0.05732028469050      -0.69706398209494
C        -0.04048768464629       0.02419538609887      -0.08529670115859
C        -2.51837841124579      -0.00599050715873       0.39611380332858
C         1.04655967955519       0.08113765125504      -1.16249262436005
C        -3.92402015412324       0.01463268203326      -0.21475506081932
C        -4.99888231431925      -0.05217147812589       0.86619119549166
C         2.96132323569414      -1.17972766660437      -0.28824545745043
C         2.98979613469647       1.19136664484216      -0.15538774963977
C         4.19687994272340      -1.24894931061482       0.36061807436470
C         4.22651518791749       1.15786056299711       0.49408001250762
C         4.82919681801708      -0.07136995637061       0.75645437333015
H        -1.56574479074707      -0.80857448885246      -1.38438978795651
H        -1.56811785215394       0.99529033790851      -1.28194186918535
H         0.08173561023843       0.89229012713370       0.59685944997105
H         0.08331320056261      -0.91105160921529       0.50194142510889
H        -2.38763765995915      -0.93883705301556       0.98835251035888
H        -2.40061014003536       0.86397672643449       1.07968211487051
H         0.93726206523214       1.01433410060255      -1.75930257220645
H         0.92269846409816      -0.77022111514459      -1.86879761491071
H        -4.06316526087583       0.94803454408667      -0.80259112586882
H        -4.04790100866944      -0.85368746188165      -0.89797617009274
H        -4.91611410433426       0.82069899481202       1.54815705891419
H        -6.00273308846062      -0.03780377100800       0.39181600692005
H        -4.89789222157495      -0.98902946511544       1.45440632866353
H         2.46978980989442      -2.09961771586865      -0.58214258906050
H         2.52001222074030       2.14978339861814      -0.34195323537599
H         4.65615232474190      -2.20853550703354       0.56010104736876
H         4.70832473227925       2.07775855805823       0.79923965556818
H         5.78273612106386      -0.11144855896292       1.26756306884675
N         1.01334130203224      -0.39813038010216       5.38256445252973
S         2.41115605773263       0.19461080122625       4.76461595334494
S         0.07903039307525      -1.48942268774169       4.59312258799666
C         2.06777915668905       1.70446795366134       3.88667382143486
C         0.41760908946839      -3.11596703644498       5.23305871181727
O         3.35671272214136       0.49869317701604       5.89210941033198
O         3.04492877112280      -0.79828696297354       3.82963064174886
O         0.35600252074204      -1.46323502072368       3.11588514429320
O        -1.36797329663034      -1.16743098082734       4.83899840176232
F         3.24363216750868       2.22865249950119       3.38616605544789
F         1.49039841571737       2.61759173460547       4.74792343027021
F         1.19992638193420       1.44963283905164       2.84424814392394
F        -0.35044763879199      -4.04809043689146       4.56209726866872
F         0.11077577801319      -3.15507072721079       6.57980686107400
F         1.75536702643129      -3.41506616983497       5.06008267928364
