44
C12H24F3NO3S optimized with ForceField in AMS.
N         2.01443956808595       0.44107567859215       0.08798512660788
C         2.25661637709417      -0.85885941991122       0.77250562738051
C         3.12273816896476       0.58793764592891      -0.90407720310720
C         0.70317472024036       0.44539324582914      -0.63085238911438
C         3.68260017383150      -1.27871341347015       0.47885731281936
C         3.95995039685910      -0.68014191786291      -0.87391712343690
C         2.07976308896679       1.55878278734942       1.06435511862297
C        -0.53691727051792       0.25337303434073       0.27509510201901
C        -1.80152211010105       0.10097420568637      -0.58034798058780
C        -3.04740164540121      -0.09960015884200       0.28904885096222
C        -4.30599691382312      -0.20600408862878      -0.58014745384947
C        -5.55537888182152      -0.39128060263130       0.27499365939462
H         1.59360891011452      -1.66200266150732       0.37622594104707
H         2.08758835874226      -0.81095678864392       1.87278357329787
H         3.79352817105383       1.44791800681507      -0.67081685110959
H         2.76235287805115       0.76453810872612      -1.94396992730875
H         0.70199125699799      -0.36159096607886      -1.40055189964661
H         0.57896303804825       1.40625519137070      -1.18172551286710
H         3.79234038400082      -2.38525439079322       0.46670646503793
H         4.37033908444679      -0.84128958321621       1.23572961510758
H         5.04229855679927      -0.46650113515071      -1.01163607605774
H         3.61422527799111      -1.37676970327403      -1.66999952878522
H         1.35565197590357       1.42085116584884       1.89258469448073
H         3.08777163112635       1.62064559526190       1.53312163961467
H         1.86668281231560       2.53206381230712       0.56842019454725
H        -0.42443414419759      -0.64801902199318       0.91355351568043
H        -0.66629501727622       1.13798060033400       0.93329507362190
H        -1.68631165103032      -0.77494250381411      -1.25658513269696
H        -1.93088224028225       1.01318506639249      -1.20399070751916
H        -3.15304761722099       0.75913939658443       0.98830686313039
H        -2.93261191749293      -1.03176350211397       0.88492059459957
H        -4.42136910934221       0.71816347189247      -1.18778528987649
H        -4.21159342124867      -1.07169778842127      -1.27182778363818
H        -5.68797716803562       0.47587591273819       0.95652823895696
H        -6.44733319295526      -0.46544126074453      -0.38238282970901
H        -5.47759677990814      -1.32272157825867       0.87520167859929
S        -1.41321813755329      -0.67849321651334       4.75549284564812
O        -0.31018679864095      -1.66700879064554       4.34924198074102
O        -2.04270702389987      -1.34569874860459       5.98741847632710
O        -2.47940008966473      -0.87942057667327       3.66889262346254
C        -0.86895952672831       1.03523872079954       4.99983660822697
F        -0.34766916029719       1.52646037208946       3.81995218714524
F         0.10084768374165       1.07679146250829       5.98297149267668
F        -1.94507310623644       1.81216536869775       5.38267307585470
