25
C9H14ClN optimized with ADF in AMS.
N         1.25922438575072      -0.03460372596102       0.45743649743152
C        -1.11917586302978       0.24312524166084      -0.25713322089984
C        -0.15081666725219      -0.24104158886446       0.81817027953584
C        -2.57252812369960       0.04771724018037       0.16639229898756
C        -3.55211101087559       0.51851174361877      -0.90648141032633
C         1.75895540563342       1.23664827063806       0.45643434770789
C         1.98178405761174      -1.07924964043996      -0.08364466151687
C         3.06918500226027       1.48279550176333       0.16159228275498
C         3.39248107231098      -0.87476691872412      -0.21554420296643
C         3.91773912132294       0.38238446205718      -0.12865182046826
H        -0.89773652100856      -0.30276854470391      -1.18959329790695
H        -0.93328531343972       1.31319420085478      -0.46157172395878
H        -0.28264862840562      -1.31969798514756       0.99270042816273
H        -0.32693975419911       0.27545983144955       1.77757877819268
H        -2.75097569894772      -1.02163236935133       0.38353854149610
H        -2.76281459260047       0.59436548180534       1.10954684468566
H        -4.59544422231953       0.37268581666089      -0.58836162040715
H        -3.41033854012481       1.58914854172834      -1.12596924619934
H        -3.39938489867081      -0.03809735830663      -1.84467532748587
H         1.05750915146885       2.01934169162793       0.74100293713111
H         1.60113083549523      -2.06527685278987       0.17189420867833
H         3.44652804740363       2.50341538534936       0.18955164135648
H         4.00688657170118      -1.74026206149163      -0.46058245842762
H         4.98565504808372       0.54466073972160      -0.28091565022385
Cl        1.30555022213081      -1.40079981983588      -2.20075878943359
