38
C10H20F3NO3S optimized with DFTB in AMS.
N        -1.27435576491468      -0.22170720050866      -0.56195387785748
C        -2.29522085656763       0.67141774164009      -1.21446365509473
C        -0.58688905068860      -1.03960510430752      -1.60797828149465
C        -0.26892637168445       0.69204383281701       0.09618981649918
C        -3.29073675303699      -0.08649056063724      -2.08146724853769
C        -1.56899397177106      -1.86213375696220      -2.43423038756285
C        -2.58140595697767      -0.94872079391834      -3.12379695941446
C        -1.91799125367657      -1.09805956582454       0.45950697161616
C         0.72949752327775      -0.00388682664570       1.01604230264815
C         1.57172489690061       1.06264736149442       1.71643446730893
H        -1.73900566492694       1.39017090534554      -1.82198036636782
H        -2.81685829637471       1.20479497927815      -0.41854524307559
H         0.13225877980737      -1.68937910419246      -1.10493825633087
H        -0.04335748693586      -0.34635129160410      -2.25646040579489
H        -0.83970498542937       1.41953390559376       0.67430112246726
H         0.25455459409037       1.21761184789932      -0.70689633852450
H        -3.91726784052424       0.65804601120011      -2.57871973750816
H        -3.94571518878752      -0.70601972678166      -1.46397199965513
H        -2.08477961739915      -2.58817491393755      -1.80008047704604
H        -0.99443561028840      -2.41716832872810      -3.18040827027149
H        -3.31227616810353      -1.55150105414940      -3.66778634720779
H        -2.06317373517858      -0.30795169226988      -3.84482600217803
H        -1.25717846730955      -1.93226643898656       0.68434783959380
H        -2.10005747137794      -0.51309342062072       1.35715324354723
H        -2.86318942414349      -1.47317399014823       0.07902181741857
H         0.20204395397256      -0.57946013070141       1.77933669708148
H         1.37643014992228      -0.68285183995482       0.45168260665132
H         2.09811760970907       1.68139580023096       0.98879502723935
H         0.92840796499009       1.69999703225272       2.32320270945296
H         2.30429182500793       0.58441629031290       2.36554491980989
S        -2.90562577713773       1.80805862184186       2.08673018840392
O        -1.82324895651319       1.10897249853004       2.76986096114062
O        -3.91670531296115       0.91800903723986       1.53090652279079
O        -2.44494387930618       2.82391484520803       1.15043028882170
C        -3.77594609621869       2.74426396936036       3.41879506316764
F        -2.94501487739183       3.59577984127582       4.00645720919038
F        -4.24465459114403       1.91174418354681       4.33983691484685
F        -4.79396648590826       3.43017519791131       2.91528849162601
