44
C12H24F3NO3S optimized with DFTB in AMS.
N         0.07184715786023      -0.14849615492869      -0.81766797650524
C         0.25410105543469      -1.45680378759296      -1.53326596341377
C        -1.41046360285549      -0.07857382693018      -0.61511814764032
C         0.75472681627159      -0.17509180834125       0.52354119440232
C        -0.77009270544655      -2.40604767134740      -0.92148985970757
C        -1.85238735002924      -1.50645278364466      -0.30565043578528
C         0.54978698333398       0.98887233653091      -1.67491602108970
C         2.28106487113381      -0.18439216068677       0.46900510957555
C         0.26950883942254       2.36000744137001      -1.08411335614320
C         2.84097288681168      -0.33691339651534       1.88712402627127
C         4.37291824587852      -0.34357365979776       1.85765365068586
C         4.95501640128139      -0.51712087333179       3.25835507129189
H         0.05480271463012      -1.28236697886215      -2.59193688876902
H         1.28006976241705      -1.80364056303176      -1.42730484727493
H        -1.64577789410048       0.62634259085596       0.18227090475216
H        -1.85291227348016       0.27094861227600      -1.55069753824349
H         0.40411125284524       0.69830851737861       1.07996718831416
H         0.39682632431902      -1.07054870323827       1.03791433010848
H        -1.18255080098408      -3.05715403497249      -1.69366736135014
H        -0.31209641549115      -3.03718487270607      -0.15709008081385
H        -1.92433592015786      -1.66488965512067       0.77244172830534
H        -2.83424298476288      -1.69729119856018      -0.74205649211201
H         0.05377927381704       0.88308607911594      -2.64207294537239
H         1.62065235913101       0.85943579095966      -1.82746373722633
H         2.65602652203941       0.74337659247821       0.03265755758540
H         2.64158872818033      -1.01008422506931      -0.14617586150868
H        -0.79523469974647       2.52951658001969      -0.92638865467289
H         0.79626116076896       2.50860926087028      -0.14269263519819
H         0.63287217017457       3.10172451103143      -1.79508243635877
H         2.47728474310570      -1.27279748319111       2.32647130789557
H         2.48628011705669       0.48780926163927       2.51620604458721
H         4.71860776955186      -1.15783855420223       1.21388689851649
H         4.73020572121051       0.59694798282478       1.42637889101743
H         6.04406656571326      -0.52354568597282       3.20930130644282
H         4.64106135259442       0.30040043168612       3.90943922854171
H         4.62240061294353      -1.45860761230805       3.69829969985703
S         3.23853597664384      -0.75004761697269      -2.96200098365820
O         3.28204098165678      -1.94263480457801      -2.12717936763529
O         3.62863668876777       0.46929236501294      -2.26832333082168
O         2.00770291656426      -0.61654498282282      -3.73269693465259
C         4.55776609900519      -1.01773438622943      -4.22676473518307
F         4.32724798500460      -2.13234886412634      -4.90962357986126
F         5.74623798419418      -1.11971495497522      -3.64555666482755
F         4.59392941189060      -0.00245874369343      -5.08121257222527
