28
C8H18ClN optimized with ForceField in AMS.
N         0.43696062492676       0.23700367757027       0.03967203301899
C        -0.52476394203463       1.28941510359011      -0.41862389090827
C        -0.05823320001445      -1.11923289883239      -0.35024530113760
C        -1.98155707211540       1.05188007242687       0.02038532018027
C        -1.49677911522447      -1.40587888879556       0.11295898226321
C         1.73952132117383       0.51918809465862      -0.65030321512607
C        -2.45688305514296      -0.33626638764546      -0.39607509075531
C         0.62759839111147       0.33029686605816       1.51384053764053
C         2.90524578972549      -0.41998451486700      -0.28940237318370
H        -0.53007406900217       1.34859497698051      -1.53201329793008
H        -0.21044522461130       2.29405526036427      -0.05169004073807
H         0.58491545903622      -1.91744050268660       0.08045603858573
H        -0.02669118010558      -1.23893304356223      -1.45774524376595
H        -2.62950189859225       1.81189044068492      -0.46703819600846
H        -2.10003501250382       1.18826199304208       1.11509954738359
H        -1.54446007397848      -1.46803682214529       1.22013011344293
H        -1.81444136492721      -2.39399980200510      -0.28482598986356
H         1.61053400248453       0.46803112506092      -1.75590018601122
H         2.07501442683628       1.55843343826512      -0.42763074117080
H        -3.47039237988813      -0.52009494246586       0.02146125954471
H        -2.52351288802216      -0.39176571786338      -1.50512494236656
H        -0.32940233167170       0.28981859777346       2.06896965819837
H         1.23565713246164      -0.51466890892860       1.90093568428291
H         1.12961596458183       1.28317656666721       1.79294399019958
H         3.79526734210487      -0.12539309585437      -0.88502223674107
H         3.18434525533691      -0.33336762075429       0.78003510725288
H         2.67925496840111      -1.47452450350995      -0.54250587940563
Cl       -3.46591911464623      -0.95362052942646       3.55508405571865
