24
C6H11BF4N2 optimized with ForceField in AMS.
N        -0.51121246260942       0.16264716584074      -0.36648663238098
N         1.67681801529240      -0.07484118877005      -0.05676723695159
C        -1.90699816004121      -0.14253405363469      -0.67041591524791
C         0.53107696248211      -0.69023505237944      -0.40865287682419
C        -0.00739281279278       1.35317023911317       0.01816974300647
C         1.35157243129772       1.20508913277988       0.21032445478193
C        -2.73041628628831      -0.18935139088707       0.61109749930742
C         3.00257215998123      -0.67182206213012       0.04004642553742
H        -2.31717225398874       0.63135428570847      -1.35460373872807
H        -1.97918937643381      -1.12760547654633      -1.18100923284427
H         0.45515277048365      -1.73688652149079      -0.67732985393832
H        -0.58375189920431       2.26017058048376       0.14952672633617
H         2.04790212225661       1.97166646795099       0.52534549432523
H        -2.34399797245687      -0.98682750094409       1.28102170376353
H        -3.79088795919191      -0.40901245544049       0.36628411540291
H        -2.67766858746705       0.78671570665647       1.13773853544296
H         2.96415561200022      -1.75029481703882      -0.22387819103526
H         3.69639022046874      -0.15525896416528      -0.65576633701667
H         3.38169909490064      -0.57026774381285       1.07868539389022
B        -5.89579533278949       0.26159453608326       3.09304717233524
F        -7.03195313021650       0.92320181820045       3.63013246232502
F        -6.29536811880909      -0.55637947047096       2.00283639507977
F        -5.29934979941918      -0.54639615248407       4.09731076926712
F        -4.95705188505466       1.22692450497788       2.64257942326585
