61
C19H39NO2 optimized with ForceField in AMS.
N        -0.53154971513410       1.77860037992967      -0.17685929720270
C        -1.39623331593190       2.32086026080397      -1.27584524494329
C        -0.20971522198091       2.89245958670792       0.77493396940428
C        -1.20748386746103       0.66045123915242       0.57078087170701
C         0.74472929196737       1.31948620751910      -0.82632996285226
C        -2.67632807050951       3.01650449231948      -0.78406763060899
C        -1.44876988054860       3.63467277688336       1.31618697854220
C        -2.33091051032539       4.14592422980042       0.18093808082010
C        -1.51535581445221      -0.61229459415973      -0.25592291316812
C         1.77201545723315       0.63569366122082       0.11015563720152
C        -2.18638865054605      -1.67672779700126       0.62218706977807
C         3.04068213131132       0.25976861713333      -0.66706082676001
C        -2.48600917561867      -2.94900949206613      -0.17937101324207
C         4.05292728317124      -0.45610287143016       0.23492532986651
C        -3.18255878861868      -3.99673650631027       0.69631303961386
C         5.32385916292947      -0.81319506578919      -0.54432678122536
C        -3.46090947522530      -5.27503025369973      -0.08883955087197
C         6.32974374601648      -1.53916307588898       0.34386932215044
H        -0.82931386109377       3.07610460796951      -1.86969350887381
H        -1.67438611002077       1.53230381761026      -2.00521702263962
H         0.34930165921971       2.51426300091689       1.65772314037845
H         0.44302493699570       3.65001630965028       0.28259248382848
H        -0.59669639934418       0.36626528893680       1.45262977849734
H        -2.16702019920904       0.99960215285673       1.00664347466101
H         0.52370993567909       0.62375219492815      -1.66650642950684
H         1.25743337511858       2.18610073045175      -1.30545966420530
H        -3.21065186617462       3.44579151568235      -1.65924517118322
H        -3.37143536375881       2.29436363956217      -0.30867276963707
H        -2.03766540066625       2.98285181833635       1.99449146792645
H        -1.11053847110409       4.50219152529798       1.92322466460235
H        -3.26601247648073       4.57557777575546       0.60033778839829
H        -1.79761546045361       4.95342211206327      -0.36789741669147
H        -2.20554636709276      -0.37467941679977      -1.09025033132149
H        -0.58438100822675      -1.04743243994193      -0.67211630934706
H         1.34717795521654      -0.29242985800984       0.54419616477444
H         2.06198201214880       1.31694455637003       0.93554946424113
H        -3.13662251463024      -1.26896962006562       1.03274984405642
H        -1.51469935698735      -1.93092513341868       1.47109099716675
H         3.50543859238627       1.18227181359685      -1.08037557826815
H         2.77004757711696      -0.40866877766197      -1.51422874715904
H        -3.14184660892699      -2.69697369848093      -1.04192800493954
H        -1.53315221936072      -3.36955446216464      -0.57035453541121
H         4.31861736138762       0.20508128490894       1.08920664200857
H         3.59366803109661      -1.38633042356163       0.63673714220441
H        -2.53984983657059      -4.24390428475067       1.56933532032458
H        -4.14606035346221      -3.58878549488315       1.07273154631569
H         5.06523686610846      -1.46874983836970      -1.40445545765470
H         5.79494980044448       0.11399761424511      -0.93782587398003
H        -3.97086877300568      -6.01092082055390       0.56801344464614
H        -2.50941400392660      -5.72061292107603      -0.44962836012851
H        -4.11821698241127      -5.05907456390202      -0.95796478281399
H         6.62197924561842      -0.89609437581034       1.20122599525335
H         5.89282157809565      -2.48598745237106       0.72683862519122
H         7.23941135127080      -1.78066947186861      -0.24538800974659
C         0.24713955693910      -1.03139003069417       4.38001442665620
C         0.06295362757148       0.38078139391840       4.83773615398395
O        -0.91050361898800       0.68134850236736       5.50945305029355
O         0.88342355969626       1.23530136136471       4.54397648052928
H         0.33135711475495      -1.70131577672169       5.26163055815728
H        -0.62614491099976      -1.34156022849249       3.76966358592409
H         1.16778496195263      -1.12798142011553       3.76550765797900
