45
C11H20F6N2O4S2 optimized with DFTB in AMS.
C         2.85118442193884       1.45178978313498       0.43493290568948
C         1.59099554853128       2.02698632287115      -0.19962326554942
H         1.73405048523993      -0.17239447695669      -1.83860397466186
H         1.11700949009474      -1.21393637551443      -0.52996048554899
H         3.72515738854114      -0.21431520190032      -0.66918822255944
H         2.96062700467001      -0.68280330019343       0.85892683059947
H         2.81981504681338       1.53758898773175       1.52349202206977
H         3.72423442502215       1.99340856001706       0.06940443776514
H         1.10492596996276       2.79938627512017       0.39697089994422
H         1.80656040099879       2.41076733587509      -1.19897175656210
H        -0.55837205585435      -0.36699725687292       0.85030126029869
C         0.01040947398773       0.55555002302879       0.93872846407566
H         0.77827024029252       0.43492452693267       1.69943864007940
H        -0.65089339680409       1.37748428211121       1.20764629478611
C        -0.36696532880222       1.21540566711570      -1.40594215108041
H        -0.74167417121748       2.20465804033325      -1.12728880336150
H         0.17028108678106       1.30419854114867      -2.35270779403477
H        -2.13818570923508       0.22878697245626      -0.63256713989798
H        -2.27158904746581      -2.86317215697860      -2.83330482828554
C        -1.23983966183864      -1.13819957839780      -2.05585596998318
H        -0.54499127679381      -1.07987668530377      -2.89648561719141
H        -0.76929589613032      -1.72061064365810      -1.25761275254193
C        -2.51315869975792      -1.85208188699682      -2.50680229146025
H        -2.97282443558915      -1.31872495601149      -3.33896635339169
N         0.65818837828040       0.86121791048889      -0.36109431340530
C         1.57717923826380      -0.25516019603442      -0.76257245901954
C         2.88188224238985      -0.01867691520309      -0.00421195916539
H        -3.23262244146943      -1.91135495535287      -1.68869630836679
C        -1.56074900029638       0.27586864562136      -1.56113506263731
H        -2.19475548894558       0.76340668101449      -2.30961546806213
N         2.01727595427480       1.32227599250486      -3.54212267405579
S         1.41411954881242       0.53761306445185      -4.81007592091833
S         3.60848002528618       1.33120320187525      -3.30771924077629
C         1.87666063336597      -1.28029879095705      -4.73796856570106
C         4.53850362872989       1.99928639819432      -4.79442592377323
O        -0.01424304260894       0.51952134579529      -4.58420294128908
O         1.90810793657872       0.99454366598006      -6.08068051430319
O         4.14722513022987       0.00734379591768      -3.07258910517103
O         3.83439046146004       2.31972437253612      -2.27222703650500
F         1.00593313451894      -1.96149593122716      -5.46339271778349
F         1.78798496412198      -1.71208657566522      -3.47549076526302
F         3.08951659898590      -1.50844717047623      -5.18854244257400
F         5.72241736984601       2.40978069089091      -4.37140305890517
F         3.88827701498101       3.02195898099941      -5.31435875264032
F         4.70580159810908       1.06222478845319      -5.70217014588205
