25
C9H10F3NO2 optimized with ForceField in AMS.
N         0.14487584993486      -0.00079599270133      -0.34433485556553
C         1.58732656307469       0.00423407291099      -0.61532815461138
C        -0.52656689016246       1.18479023707864      -0.21706792474007
C        -0.51833185328471      -1.19069627481888      -0.21622361005056
C         2.37624556090277      -0.00774971338286       0.68901724111891
C        -1.90017105672976       1.19810229215886       0.03867488894288
C        -1.89200238050154      -1.21306148246115       0.03891517588971
C        -2.58444933440830      -0.00976771819539       0.16526740895283
H         1.87211374240946      -0.88007765053066      -1.22761614087171
H         1.86654886125703       0.90609552941696      -1.20101051117728
H        -0.00093026591360       2.12795617896919      -0.30996912046804
H         0.01383883964571      -2.13010309467938      -0.30913316087967
H         2.13079787396788       0.89223356191840       1.29144916913649
H         3.46448475593371      -0.00439314636129       0.46761820852694
H         2.13215885188900      -0.91849138945668       1.27545049146465
H        -2.42814428440475       2.13775805730755       0.13832710850870
H        -2.41377914858505      -2.15615801459505       0.13819319066134
H        -3.64866867726357      -0.01329884978708       0.36335642576051
C         4.45276425878843       1.86622499219895      -3.41787613055195
O         4.21817233867329       1.05885946945607      -2.53266661218431
O         5.59238410086635       1.98304675301716      -3.83932544521060
C         3.35373526576286       2.71191275186313      -3.99168777434939
F         3.66426350298356       4.04895948907207      -3.82421037382839
F         2.15075635972058       2.44766364244838      -3.36028062048478
F         3.22126198844354       2.44209091985340      -5.34134634648927
