32
C8H18BF4N optimized with ForceField in AMS.
N         0.00520665097947      -0.00078798062460      -0.00080842481513
C         0.92285296116415      -0.84420608869967      -0.82745675823891
C         0.90731452181503       0.85831250570311       0.82694497196690
C         2.32982723907724      -0.29663017941787      -0.68598912793569
C         2.32689742347333       0.34856562417618       0.67040350485146
C        -0.82356570693427      -0.86756620065480       0.89926158713187
C        -0.83695549737012       0.85158183562299      -0.90235988178810
C        -1.80741722543922      -1.79697050092984       0.16449841617256
C        -1.84031789024641       1.76186463098600      -0.16977752939159
H         0.63846415067483      -0.88179938630132      -1.90366177541660
H         0.95384560668558      -1.90142113272756      -0.47763770901711
H         0.63081910500169       0.87805990716031       1.90579265016328
H         0.90851476760271       1.91942250406566       0.48809317774483
H         2.51821657642550       0.46923660333370      -1.47038363399149
H         3.09609560676371      -1.09970993751968      -0.75320673531225
H         2.54223667599648      -0.41279974512839       1.45225285581113
H         3.07111131533084       1.17252149733958       0.73028273910872
H        -0.16050810485938      -1.50377774792857       1.53022105543575
H        -1.40630756667613      -0.24958784426609       1.61703209614248
H        -0.18395422978326       1.50045176070841      -1.53088535054661
H        -1.40643029220046       0.22372864344518      -1.62219603290546
H        -2.26978155844863      -2.48861851241001       0.89933787974933
H        -2.62711117233408      -1.22055082603324      -0.30989387990958
H        -1.29748769665612      -2.40850869671904      -0.60725994655551
H        -2.31207021771740       2.44649105843475      -0.90524710671084
H        -2.65150202478623       1.16995406843458       0.30016286425687
H        -1.34510215912686       2.38107357595047       0.60537231245789
B         5.60699420341348       0.06561467483472       3.89601758581689
F         5.65762838643427       1.18980152381718       4.76237911554509
F         4.88590533666989       0.40617237179465       2.72195606065847
F         4.95759577524296      -1.01179224656661       4.55527488524652
F         6.92733149382744      -0.32113006248019       3.54386053387482
