64
C18H26F18NP optimized with DFTB in AMS.
N         0.33820349436567       0.25596801263290       0.80284651872754
C        -0.71142138775168      -0.46183672791535       0.00679130428874
C        -0.24039517583267       0.58653044199305       2.15389591248122
C         1.58937803540968      -0.56642539717112       0.95977082675783
C         0.63013560893883       1.54741659049306       0.07883376891874
C        -1.21330060858257      -1.72413979548913       0.69797857679529
C        -0.77486182825450      -0.63066906857366       2.89752194899433
C        -1.80688043614798      -1.38442035592433       2.06404181109810
C         2.18963269854567      -1.06660285594644      -0.35166602617741
C         1.78501347944152       2.37090313671067       0.64866365502544
C         3.58684555524384      -1.64198720181202      -0.08119068700111
C         1.80964097460470       3.74132852102248      -0.02666504759783
C         4.16562209691194      -2.29204346012127      -1.33481469678697
H        -0.29144855915100      -0.69413777595116      -0.97326315742774
H        -1.53919603281985       0.24066656200301      -0.12810084441491
H        -1.04853185969056       1.30316472108058       1.98087724234345
H         0.54176206029165       1.06609104504510       2.73897667328930
H         1.34947056467520      -1.41553102280854       1.59849370200780
H         2.30700895512707       0.05414337783982       1.49534049119009
H        -0.29377935993548       2.13203940627129       0.10906464304153
H         0.83432520246980       1.29391179791253      -0.96454373174333
H        -0.40419333525765      -2.45055288667636       0.80558777829803
H        -1.97782788630239      -2.16859321521761       0.05523906200587
H        -1.23253614346000      -0.26519943683251       3.82015821115132
H         0.04040450002761      -1.29816937003735       3.18100655496964
H        -2.70282784518974      -0.76901411322096       1.93043175268131
H        -2.09747404228830      -2.30309883127905       2.57817453899162
H         2.27308859826776      -0.25604052924374      -1.08082058840644
H         1.55645043957317      -1.84748262210270      -0.78410109791860
H         1.67319087017521       2.50425198058150       1.72538453261589
H         2.73709238665075       1.86829363413462       0.46673606984557
H         3.52655229491819      -2.38030612386445       0.72318563883330
H         4.24531996919269      -0.83461452193741       0.24991053633666
H         2.64708360218526       4.31883324011161       0.36224885163022
H         1.92823986891865       3.63788027772235      -1.10600270537202
H         0.88715397709922       4.28729318745809       0.17395778354751
H         4.24265506850054      -1.56471729965404      -2.14438179378582
H         3.53444399716749      -3.11754592552059      -1.66713929299979
H         5.16090160934959      -2.68015230884035      -1.12045921538482
P         3.18262409267541       0.10763663300676       4.95894119665258
F         2.02385997183529      -0.17961751535564       6.13213661752130
F         1.98744262170388      -0.21455783327898       3.75606611427959
F         4.36883781184236       0.43509259106691       6.08074219956173
C         2.62813126538024       1.99013805806754       5.01444570720086
C         3.58422561658642      -1.80736993183715       5.09848828766745
C         4.41819969064630       0.43100593802447       3.40909793044635
C         1.88041140835985       2.50029474409698       6.27570250462591
C         2.61047798813527      -2.80418781077715       4.41296469153763
C         5.92337709507995       0.77070675803434       3.56703695255046
F         1.80493092301870       2.30211831445699       3.97669131857367
F         3.72365231805002       2.75375971746618       4.87643770549882
F         3.59446257014686      -2.13361527136349       6.39974796172221
F         4.81197857701748      -2.07963186549912       4.62079118166424
F         3.89000240572539       1.42287889536680       2.64599706747700
F         4.36337730957743      -0.67494843882858       2.62665926394973
F         1.81280063178731       3.83530959618553       6.24992427027491
F         2.48318694374330       2.14413178180513       7.39984357461554
F         0.62854770714678       2.04057549863721       6.29236244405825
F         2.92920413692001      -4.06105942254943       4.71241659657238
F         1.34828837607015      -2.60333493588539       4.79221232186585
F         2.64649024911507      -2.69326710851743       3.07636772811424
F         6.50222598025381       0.80516416595010       2.35981229934536
F         6.55744038622025      -0.13794970926581       4.29654473926314
F         6.09661729317527       1.95943420752062       4.13183154641123
