40
C10H22F6NP optimized with ForceField in AMS.
N        -0.51712667244790       0.01520149856566       0.00212224056344
C        -1.43916820798476      -0.55594235479345      -1.02793993312234
C        -1.41474939884726       0.61530155389197       1.03680457518353
C        -2.84601129685890      -0.07456884852503      -0.72901081697465
C        -2.83521025882493       0.16570776154234       0.75410155877340
C         0.33238262321352       1.08014025261972      -0.62444640204908
C         0.30079262919157      -1.07667607744593       0.62439904533157
C         1.35239684096569       1.73534523399946       0.33768292793132
C         1.29528643538798      -1.76201395579787      -0.34317453819561
C         2.06540853342885       2.90368294964969      -0.33695749985133
C         1.96383515508034      -2.96183482991836       0.32043940499280
H        -1.16067507290088      -0.27875178507125      -2.07019258919059
H        -1.46752673704105      -1.66957822766264      -0.99861435615705
H        -1.13262484136525       0.33888604415312       2.07824645599923
H        -1.41658171215278       1.72907428272773       0.99904231468321
H        -3.04025990770973       0.88015822552185      -1.26585480121520
H        -3.61358810549341      -0.82762034361400      -1.01244521135372
H        -3.04485081913516      -0.78448851778032       1.29321669163601
H        -3.58228597874002       0.93597569348326       1.04578811478150
H         0.88723563589768       0.67331192832315      -1.49836303554114
H        -0.32354423824710       1.88029833914942      -1.03972589085343
H         0.87233573614089      -0.68899329836765       1.49624446468085
H        -0.37855963016550      -1.85585071629243       1.04190371339383
H         0.85041963943410       2.11187045561705       1.25320733071181
H         2.12634053420529       1.00179925165196       0.64486179957393
H         2.09577257423242      -1.05516573050073      -0.64510640919747
H         0.77979948332219      -2.11235564099694      -1.26149082912941
H         2.62480364918225       2.54877978317123      -1.22895387723909
H         1.33245406465365       3.67849922579410      -0.64696151045322
H         2.78528429430831       3.36173088392633       0.37410034247000
H         2.54425027915531      -2.63676557799440       1.21032259131813
H         1.20165505970720      -3.70748132183274       0.63069838397702
H         2.65767714713893      -3.44336714947210      -0.40007738585075
P         3.67750882032544      -6.82045044859771       1.11021496315752
F         5.30575703519688      -7.30939438456516       1.35625129263837
F         3.21819626506896      -8.14825917616421       2.09844819902558
F         3.72856673151744      -5.77729328035929       2.47415730626082
F         2.03620304877710      -6.36051365623645       0.89895623775874
F         4.25617077778373      -5.54208642194274       0.12014640249597
F         3.52799019999893      -7.79841391785662      -0.29406997206450
