60
C16H30F6N2O4S2 optimized with ADF in AMS.
N         0.55539906883162       1.29508171780766      -1.20528137770190
C         1.04769179837025       2.60416784271157      -0.60457638202250
C         0.28257001475870       1.69079579098975      -2.64684514491757
C         1.62466690191559       0.22070254631373      -1.16101098933139
C        -0.71242783468145       0.87803341762659      -0.49222256272571
C         0.25818972162522       3.71546042180259      -1.31515639792953
C        -0.38653588115798       3.05085976365245      -2.55725499155424
C         2.02012876756305      -0.20147096061387       0.24151264019347
C        -1.33089493141405      -0.42663669480400      -0.96311996545228
C         3.15479464302630      -1.22794945552690       0.18850453139385
C        -2.63949917725710      -0.69351084784033      -0.21501634549342
C         3.63122152484911      -1.64421348337520       1.57839224338998
C        -3.27480944084196      -2.02934673069386      -0.59842030260317
C         4.73964175846892      -2.69256360324981       1.52504772059649
C        -4.57789778143848      -2.29541936194425       0.14957813407419
H         2.11621652241017       2.66565563419385      -0.84720666053594
H         0.90543615336013       2.56953616692858       0.48250437827698
H        -0.29421006676242       0.90194766758732      -3.14311895348258
H         1.26859510819367       1.75450074716621      -3.12347554345104
H         2.47860794764412       0.64468568283724      -1.70702148974833
H         1.24686338647349      -0.62440851238912      -1.75422175345895
H        -1.42183864634275       1.71004009912716      -0.61295452026157
H        -0.45687109501788       0.81406223578770       0.57547905133567
H         0.95664146307697       4.51076336872142      -1.61088850657196
H        -0.50180536970989       4.16356373640651      -0.65919076287907
H        -1.47819340673152       2.96369771673988      -2.44350959485155
H        -0.19809442316323       3.61743303985306      -3.48013379397313
H         1.16641955948757      -0.64128862183016       0.78700875683235
H         2.36298702071261       0.67550576294066       0.81779654902044
H        -0.63787856904044      -1.26532932120938      -0.78432186604944
H        -1.53362277727753      -0.39824022853284      -2.04665674421462
H         4.00133868786587      -0.80626322353111      -0.37834183960269
H         2.81831998637625      -2.12057446190818      -0.37064827572009
H        -3.35552001384743       0.12456203069640      -0.41778796694829
H        -2.45071172807133      -0.68105855186466       0.87504934087968
H         2.77579750208971      -2.03467562812560       2.16038107641178
H         3.99302866067431      -0.74905317013793       2.11638007244104
H        -2.55523817213985      -2.84264946743569      -0.39426731597595
H        -3.45986210513311      -2.04383683137843      -1.68782858216241
H         5.08586914199389      -2.96238963081237       2.53399835520578
H         4.38849457285352      -3.61208512292830       1.03027698697065
H         5.60617651188093      -2.31800747718590       0.95769300958271
H        -5.01230957203047      -3.26477598481062      -0.13686262902727
H        -4.41232030776616      -2.30947879785799       1.23885972356330
H        -5.32474235696488      -1.51482363887050      -0.06638878084546
N         4.61872756911871       1.88243985537583      -4.73575752321765
S         3.42307428408248       0.94713893172018      -5.26613106090488
S         4.76547765243747       2.44341349136371      -3.24852641504942
C         2.33469724295724       2.19347989062608      -6.17213033327520
C         5.79255149115158       1.10789448717447      -2.39833355219060
O         3.92169462379325       0.08892465855843      -6.32589540445331
O         2.52850447877491       0.38595749841704      -4.24714204985120
O         3.53331421851681       2.47941908399499      -2.43999355188251
O         5.63270413703183       3.60816881107265      -3.24934028084462
F         2.98826843798721       2.78484304028138      -7.18951256717320
F         1.89395445663675       3.16445585181223      -5.31814249326948
F         1.24231004359392       1.55658245407964      -6.67098647069271
F         5.91912813146652       1.40328863147303      -1.07449742611857
F         7.02269191543481       1.01823261758396      -2.93749334056898
F         5.18622247280443      -0.10627424916691      -2.49439890148401
