32
C10H15F3N2O2 optimized with DFTB in AMS.
N         0.11146444462348      -0.75669962281701       0.09727563503148
N         1.82353986415338       0.53821828725755       0.25675159005457
C        -1.16054535268596      -1.40731469640504       0.37758985508905
C        -2.28584915320751      -0.75876535248075      -0.43474844400257
C         0.71138137150567       0.15189419655819       0.87270792772985
C         0.86538491961151      -0.94556491940863      -1.03288776030886
C         2.83539232731573       1.43158144382543       0.81673243428714
C         1.94789292514526      -0.13127091665532      -0.92672912427599
C        -2.51157289910497       0.69992148443550      -0.04453795093909
C         3.23207175184762       2.50617033657692      -0.18548880110839
H        -1.35645989264769      -1.32321014236114       1.45000669293727
H        -1.06335734509261      -2.46393760863642       0.11404583391242
H        -2.04310475563248      -0.82438691493956      -1.49921718854863
H        -3.19915976844053      -1.33361691745791      -0.25865494961712
H         0.36030393121667       0.49373238051615       1.83102648281519
H         0.57900370917992      -1.64591258671786      -1.79727142376837
H         2.42207873242434       1.86751167534615       1.73053071242193
H         3.69684196309896       0.79989351361973       1.06293529247852
H         2.80792967193970       0.01245617239006      -1.56951740784968
H        -1.61345088170656       1.29028876264323      -0.22956002645093
H        -2.76955888556820       0.77864271903974       1.01228598196365
H        -3.32724490269043       1.11669745994784      -0.63404710434085
H         3.74599035531865       2.05616450363998      -1.03462737566092
H         3.91168325766409       3.20344778669922       0.30232164491742
H         2.35564991027070       3.05025328975373      -0.53817677310266
C         5.01760260053225      -0.65544970449451      -0.86699213970551
O         4.33684277320185      -1.01249651557415       0.09775617276492
O         4.75883305102713       0.14710183477197      -1.76786621993879
C         6.45478221237459      -1.35776953963503      -0.97186949244687
F         6.35768888065193      -2.58326940041077      -1.52670438306436
F         7.02470371649666      -1.52201666132041       0.23496325310921
F         7.32166536117681      -0.65916020520690      -1.72014101288304
