33
C9H15F3N2O3S optimized with DFTB in AMS.
H        -0.33868792302722      -2.56357475047694      -3.73803229607341
H        -1.85445201008331      -1.64558268483878      -3.48138116685228
H        -1.50085647807513      -3.06188874662754      -2.47151704352212
C        -1.06096955035071      -2.21553216577832      -3.00217491106039
H         2.00192846872564      -0.33820928416514      -0.08634008391045
H         1.62041613704785      -2.10925478074296      -2.18032045998715
H        -2.04460179303706      -0.24044349554024      -1.26535515197370
N        -0.38646754208227      -1.36856363319282      -2.03225630441541
C        -0.99782438178777      -0.49012829695689      -1.24129506049879
N        -0.09187690938008       0.00549897365673      -0.40352094815049
C         1.11957075225758      -0.58126263452814      -0.65155772101182
C         0.93287653499683      -1.44982426384637      -1.68031091105610
C        -0.39783873187588       0.88373530822182       0.72325493071559
H         0.22134884932274       1.78217408239762       0.64669906684579
H        -1.45084852621567       1.15803586839258       0.63358417005324
C        -0.14867818992261       0.13456271828135       2.03879730264440
H         0.91661553270576       0.17008977574763       2.28745776520046
H        -0.43124759135475      -0.91126489092267       1.90134896725033
C        -0.98838355609488       0.73032081756623       3.17168963979549
H        -0.73414325918996       1.78700822084654       3.30891413420878
H        -2.04495079922973       0.66444694683892       2.89473606124737
C        -0.75861627411682      -0.03573706754183       4.47263717003374
H         0.28342044487936       0.04196066842260       4.78712000245230
H        -1.00345794244714      -1.08901262271911       4.33421157000608
H        -1.39242065056640       0.37082913629859       5.26037801567222
S        -3.18432404509252      -2.13941250014812       0.49618321863601
O        -3.02521889273075      -2.37067905602110      -0.93566611974466
O        -4.41274140093629      -2.60425041177809       1.07410832496959
O        -2.75212474102761      -0.80739734806360       0.90827092852501
C        -1.85423141808786      -3.22135231968439       1.21667068151203
F        -0.68850750050385      -2.94109665665551       0.59844410053811
F        -2.09445645045258      -4.51269265912884       1.04748303819284
F        -1.67175859916692      -2.99111106481319       2.51407002795739
