28
C8H14F3NO2 optimized with DFTB in AMS.
N         0.86052810514301      -0.22816167135992       0.14858209275148
C        -0.09513301342055       0.91769179476004       0.22161591778365
C         0.05542737967933      -1.39383076981009       0.63500625938998
C        -1.44537772793469       0.33723544098815      -0.19820149187102
C        -1.33870827902744      -1.17628000003630       0.06056655004139
C         2.05405251897946      -0.00222846337302       1.00320756143303
C         1.30948148236938      -0.44915979514959      -1.25338456595627
H         0.25349005274144       1.72744968700328      -0.42015542036357
H        -0.11943736430661       1.26143233655692       1.25834722906940
H         0.04825250366916      -1.35507586179583       1.72498981178435
H         0.54056132186398      -2.31616694141654       0.31247921337232
H        -1.64152040172479       0.53758981433362      -1.25357908741804
H        -2.24684091302852       0.79074131464258       0.38736398804674
H        -2.09556553504725      -1.51454671779873       0.77003962994688
H        -1.47162440232777      -1.73517282107318      -0.86797537902476
H         2.55862441125498       0.90308371529403       0.67076555083062
H         1.74003871731092       0.09661815903155       2.03982220065765
H         2.70824864281958      -0.86689525265124       0.89564206585214
H         0.44238248737802      -0.60088743690700      -1.89183965456059
H         1.86831153015898       0.42453937348128      -1.58375353907393
H         1.94626904105177      -1.33297702521571      -1.26871377045061
C         3.13650430062365      -3.62033793487671       0.76777710176316
O         2.55628454863605      -2.81840888451990       0.01816966918027
O         3.70838303977613      -4.66780013346354       0.59626748158859
C         3.08047790559157      -3.07800164891733       2.31891143484628
F         3.37668091744289      -3.95930043661027       3.27299778190179
F         1.83003503797795      -2.59776440341968       2.60468467730721
F         3.90363193614936      -2.01162833549690       2.48946422127185
