34
C8H11F6N3O4S2 optimized with ADF in AMS.
N         1.35325400445198       0.14326886286001      -0.56363029588499
N         2.69476929467401      -0.90106500808310      -1.90895464356121
C         0.60345316290785       0.50431129073097       0.64856264802687
C         2.10097767405694      -0.95713934274419      -0.71139885258026
C         1.50733057256866       0.94054509711893      -1.67625095480907
C         2.34624157616872       0.28263806387130      -2.52445263476707
C         1.43565647047799       1.35725793702465       1.58987077479406
C         3.66811541543948      -1.86272630219065      -2.41594987497146
H        -0.30475490761863       1.02597813175920       0.30951508228355
H         0.28492113685873      -0.43929161637392       1.11592089917534
H         2.27598574388996      -1.71881948302745       0.03740330761079
H         1.03506317353172       1.91131026194620      -1.75496042881939
H         2.74704980203184       0.56471592038758      -3.48921097109688
H         2.33173536741912       0.81140595936344       1.91537566063391
H         0.82774150593554       1.62196692912362       2.46773926084085
H         1.77545577581751       2.27541683349809       1.09108218594070
H         3.35522729300401      -2.19753506266495      -3.41336409136305
H         4.65553549576627      -1.38341715762373      -2.45317579046564
H         3.71582160502895      -2.71014640165224      -1.72512175712712
N         4.44692976054921       0.59143986031723       0.10262589672746
S         4.90721642270011       2.11023755970942      -0.19360976578683
S         5.45646704952057      -0.62101839331017       0.42469477550973
C         5.80079100938628       2.11269005628839      -1.88458282067750
C         6.25407922760677      -0.30744868617690       2.11961602845677
O         3.67749324133933       2.85097410472497      -0.47099235919121
O         5.90014067292991       2.64730201423414       0.72470489232656
O         6.58010063963793      -0.75459290001335      -0.49742937673557
O         4.59519712953457      -1.78478727550208       0.67404328447226
F         5.64782935903598       3.33285479519348      -2.45364556477874
F         5.26352689984129       1.18845876634401      -2.74014894932449
F         7.11249522092006       1.85808745890243      -1.75852223459959
F         6.67261681546099      -1.49883174619432       2.61224290203080
F         5.34770821852197       0.21972973658153       2.97855321668070
F         7.31175332600438       0.51472346887747       2.02940764672974
