28
C8H17NO2 optimized with ForceField in AMS.
N         0.58025285748230      -0.00210388773191       0.01349910383026
C        -0.32544495694927       1.05219012899324      -0.51978738470344
C        -0.29416604919565      -1.09322313720000       0.52476053855517
C        -1.74429655304203       0.70051358906149      -0.11054300670018
C        -1.71834346354936      -0.79288949576406       0.09234200841779
C         1.41805268277635       0.54440719917858       1.10725216120253
C         1.46686329150713      -0.51203139896921      -1.05917470977389
H        -0.29474848878876       1.10551680460216      -1.63328334024384
H        -0.07177262052176       2.07278324995733      -0.15042787067831
H        -0.28021503228903      -1.15360245854079       1.63822346817517
H         0.00391878963362      -2.10083403354959       0.15316382439715
H        -2.48122724698243       0.99209171202687      -0.89072436601034
H        -1.99685881701491       1.20622471329328       0.84763691914558
H        -2.45709316862599      -1.11138645542792       0.86004597571892
H        -1.93663472986743      -1.30662697992378      -0.87003421514594
H         2.07252262090673       1.36431425241147       0.73498499999046
H         0.78469391217788       0.95782729084980       1.92424000641531
H         2.06969504042993      -0.24619960518890       1.54095675466544
H         0.87162035331756      -0.95396475196247      -1.88989622743458
H         2.09175437005833       0.30743354900014      -1.47995201102598
H         2.14765888369360      -1.30222487309141      -0.67005619131830
C         1.69908568881788      -3.64583147871696       2.67570634290399
C         1.22684223024800      -3.72569165475858       4.09286104411111
O         1.98489856628944      -3.43796549986478       5.00497767271530
O         0.08541186360584      -4.07873004118472       4.34276340462071
H         2.00381129916533      -2.60469612093912       2.44240035126279
H         2.56941368305087      -4.32041475865709       2.53411653549735
H         0.89194567466579      -3.94916510030310       1.97514127240974
