41
C11H21F6N2P optimized with DFTB in AMS.
N        -0.60331577537481       1.74322789208865      -0.06269448739277
N        -1.67117158350999       0.61573653286739       1.42693013749462
C         1.70346777244693       1.93418530419113      -0.92196458048418
C         2.15732569415267       0.47288575642267      -0.93712049444104
C         0.20776917792078       2.08490710763759      -1.22712423925393
C         3.65590648879006       0.36636437271345      -0.63942960520827
C         4.10593329149585      -1.09688293296321      -0.60852136595976
C        -1.02233204399777       0.52345398764149       0.26932534194225
C        -0.95781143225645       2.62174624982895       0.92566180120577
C        -1.63581518126726       1.90880841658537       1.86269303708219
C        -2.25582602395901      -0.50785709887129       2.15124238023590
C         5.59615877568479      -1.20971793326077      -0.29289612420874
C        -3.66773272480654      -0.77793775947874       1.64687394391606
H         2.25183006007889       2.50071423192407      -1.68089396239676
H         1.91353021565095       2.37626623625874       0.05498295364894
H         1.93767477821638       0.03139860702294      -1.91646615882059
H         1.60332967430157      -0.08708803000175      -0.18018247586404
H        -0.02585132143666       3.12011397717909      -1.48966136751620
H        -0.09234935450248       1.43314957610064      -2.05285224159645
H         3.86021392341122       0.82713838309573       0.33143053383522
H         4.22231953731777       0.91473289524600      -1.40117935052233
H         3.89838711948059      -1.56643941158512      -1.57699810161204
H         3.53390730056999      -1.63097210226355       0.15578327130314
H        -0.85890403431971      -0.38025488097251      -0.29034709184690
H        -0.69683087140861       3.66436203462773       0.88343650097503
H        -2.06443597630053       2.20526216824742       2.80349965502670
H        -1.60564043279998      -1.37190418697165       1.99773408732279
H        -2.25604024743817      -0.24910451842235       3.21152472351589
H         5.81041037531121      -0.77099745751444       0.68226837461317
H         6.19064958606388      -0.69000267182465      -1.04654306436242
H         5.89660045776098      -2.25779449475770      -0.27544957842078
H        -4.30064121439919       0.09704299388342       1.79473833989744
H        -4.08994813197326      -1.61595650279235       2.19925335703182
H        -3.65353298356966      -1.02622946395694       0.58562879803936
P         1.43109831578498      -0.10037280778882       2.94571032629119
F         1.46456034450441      -1.46441912011597       3.83440684556373
F         2.84645740545577      -0.48734596293605       2.21972063892527
F         0.60506745229486      -0.93380735003539       1.72752260526235
F         1.32692616366341       1.27359830183764       1.99756947110122
F        -0.04445381975602       0.30342044454149       3.61531099007813
F         2.20097649271822       0.74432759967164       4.10169501089902
