31
C7H16F6NP optimized with DFTB in AMS.
N         0.70346903765346       0.06220411698373       0.30847278622563
C         0.40525220063745      -1.38216617320335       0.03595089793669
C        -0.11946261033139       0.37866733034629       1.52249757470395
C        -1.05718358051383      -1.58323116959105       0.42664566127875
C        -1.41330307579191      -0.40766504252441       1.34920190897576
C         2.15511551301832       0.30458417661429       0.60580189408963
C         0.25529135302481       0.90274423742647      -0.83017793552102
C         3.09150239528305      -0.14564213666891      -0.50267061912354
H         1.06176508804388      -1.97668847774329       0.67089149820662
H         0.60603463323287      -1.60123760231808      -1.01316460542276
H        -0.26256136854809       1.45764267090654       1.59051459385490
H         0.43171602145024       0.02207225707729       2.39319957303017
H        -1.16197959091166      -2.53383326253279       0.95143841083097
H        -1.70325665264230      -1.59870477846949      -0.45390484707551
H        -2.19687745915984       0.21258722357657       0.90688368772985
H        -1.75915234361200      -0.76141771519461       2.32084526890406
H         2.26313146644914       1.37542970576549       0.79735378773856
H         2.38874277173016      -0.24566819226159       1.51864347447293
H         0.78657581917165       0.60548451006662      -1.73166991500996
H        -0.81362375861606       0.76384729957915      -0.97685670622010
H         0.46447903188794       1.94717215809963      -0.60426563368768
H         4.11048337728080       0.04874962976325      -0.16901547567723
H         2.99331361435937      -1.21414976986006      -0.68603909733252
H         2.92612386638634       0.39571410850394      -1.43371247065928
P         1.88982801297653      -2.35482251142690       3.55968781155098
F         1.99939638702896      -0.67615542715259       3.54435727027607
F         2.55145248075621      -2.34480952741867       2.01074391973224
F         3.38112891095723      -2.44894894772607       4.19456757670686
F         1.74868996719668      -3.97252402026741       3.48482150564939
F         1.19713822222024      -2.29773119202977       5.02759528949017
F         0.37244613518173      -2.19556288322023       2.84199867254540
