63
C17H32F6N2O4S2 optimized with ADF in AMS.
N        -1.16884852175694       0.35917696500065      -0.80324105885413
C        -1.65147435924652       1.60310887468155      -0.08752973212973
C        -2.21436318465668      -0.05507135148086      -1.82958373830576
C         0.09730214651493       0.66696212622729      -1.58947133586213
C        -0.92206051582825      -0.74668673656275       0.21132202984724
C        -3.03077459872481       1.43683650427811       0.53678442411039
C        -3.58936047744444      -0.26357055753545      -1.22957815499965
C        -4.06592580917010       0.99061211102979      -0.49692207086860
C         1.31409674244656       1.03658236060141      -0.76277784407190
C        -0.29805157664528      -2.00423501427105      -0.35996581331157
C         2.50951570257595       1.24148875046338      -1.69776843356448
C        -0.29898127109344      -3.13122638449150       0.67414971334473
C         3.79097270017742       1.59124497820928      -0.94569393101687
C         0.35591984057161      -4.39567665886887       0.11846827022139
C         4.98573191754876       1.72559420491182      -1.88560270992125
C         0.30686596345170      -5.56113263365537       1.10086193188491
H        -1.67101720614438       2.39683467587169      -0.85243410640387
H        -0.89415370327743       1.86156586930296       0.66485950323034
H        -1.82484188354603      -0.93818423201880      -2.34326592310902
H        -2.23400006266008       0.75641097503787      -2.57404677778687
H        -0.17760120152183       1.48894609232007      -2.26938630008871
H         0.29639270172401      -0.21825474995521      -2.21226515236695
H        -1.89539756952090      -0.97495660139988       0.66275043681249
H        -0.28911079430821      -0.30384562828330       0.99611676561824
H        -3.30841016464445       2.40998752250167       0.97506344108133
H        -2.98927839083132       0.72395986318794       1.37765415632498
H        -3.59860110144220      -1.13958188673265      -0.55973743309914
H        -4.25939649234721      -0.51589843939672      -2.06767201638624
H        -4.21466288018336       1.80198938508485      -1.23271950283539
H        -5.03844537167145       0.81548800659168      -0.01095052260765
H         1.14410566771344       1.95652197089457      -0.17594442791505
H         1.56381652175191       0.22975737448347      -0.05399546874064
H        -0.85523495917844      -2.34396476267506      -1.24463537619911
H         0.73209443510142      -1.81883507972929      -0.69989135598906
H         2.27895834719277       2.04474017253529      -2.42167982727821
H         2.66031971770699       0.31845146919412      -2.28397656854566
H         0.23065081143511      -2.81122134449999       1.59179448231147
H        -1.33999351848759      -3.35866409486749       0.97369785517799
H         3.99636601446831       0.80560277979003      -0.19593971892517
H         3.64615401035777       2.53253632170152      -0.38331062685395
H         1.40278052433221      -4.17002840730980      -0.15080742970229
H        -0.13993530833879      -4.67461230843886      -0.82711927167707
H         5.90376946996121       1.98119231373409      -1.33580211141840
H         5.16122385351555       0.78180141746319      -2.42549419065766
H         4.80858651454313       2.51201973288725      -2.63624228946618
H         0.78185349889393      -6.45697072664380       0.67353851193196
H         0.82993624422679      -5.31536249447796       2.03942969082857
H        -0.73387951595101      -5.82114673353840       1.35408946385375
N        -0.39274231268462      -1.86430079014404      -3.98149312545754
S        -1.66684261612181      -2.24951238088364      -4.89575854094779
S         0.94662735982467      -2.75998644381856      -3.84564933040254
C        -2.57495270823613      -3.65577178508768      -3.99275676986251
C         1.86501088820414      -2.72736346274643      -5.51177280243128
O        -2.60768831906239      -1.14034868767331      -4.74456321966255
O        -1.36140550105058      -2.79754697146752      -6.20729980086843
O         0.72223647943087      -4.17555642193008      -3.57656257322838
O         1.83015088349501      -1.99035111974130      -2.96360269622466
F        -3.85999024412202      -3.69143534437450      -4.42402636258320
F        -2.60054490929785      -3.42606688780226      -2.64026961907547
F        -2.01606674743925      -4.85827418543335      -4.20591737995381
F         3.17326295957919      -2.99110398378388      -5.26573828366614
F         1.77324571614308      -1.50682379481897      -6.09001098324125
F         1.39578726254733      -3.65778667974697      -6.36076687791585
