43
C11H21F2N3O4S2 optimized with DFTB in AMS.
N         0.77900518682427       1.52348408842991       1.02855614937142
N        -0.54948309415761       0.49970125098523      -0.31992961426756
C         2.82157731733086       1.01534225508094       2.28048639810668
C         3.36401446289816      -0.00073490351599       1.27323578437332
C         1.99547714167522       2.10578627712198       1.58864796209546
C         4.18029338344989      -1.10591301114672       1.94633779528617
C         4.70220305914775      -2.08861437327934       0.89265317851333
C         0.65570983259990       1.05523637665146      -0.21045803717174
C        -0.36572915599172       1.25256134742641       1.72811892437386
C        -1.20792225175772       0.61309835055576       0.87270242007755
C        -1.06277226622904      -0.12737769609501      -1.53823903353005
C         5.51929725102862      -3.20915247542457       1.53148785842333
C        -1.20653514376278       0.90696672386704      -2.64742853014105
H         3.65123131246878       1.50762787239922       2.79560470123851
H         2.20249801147925       0.51635244201166       3.03326831238790
H         3.99645851232702       0.51872127429537       0.54951009407060
H         2.53108666262845      -0.45318130841868       0.72582436604318
H         1.69907041990335       2.88022507176186       2.30025483185262
H         2.55659124797892       2.55911068979415       0.76759370996990
H         3.55671359634576      -1.63658859260125       2.67516146968554
H         5.02277586144113      -0.66089298595717       2.48718570651845
H         5.32418886814531      -1.54708767283204       0.17319185692778
H         3.85622341283113      -2.51625149422870       0.34508041292144
H         1.38707123828331       1.11476914226543      -1.00426934020949
H        -0.48897432480276       1.53895963908849       2.75785694909573
H        -2.20352151939885       0.23133552044746       1.01663963080322
H        -0.35759704677451      -0.90870290982768      -1.83450584610652
H        -2.02542228569936      -0.58255118104546      -1.29449522560607
H         4.91147046763036      -3.77302557610450       2.24124588239237
H         6.38006440261660      -2.79809868307064       2.06142399098905
H         5.87909599147211      -3.89309544795173       0.76268862711252
H        -1.90232697335476       1.69265564400600      -2.35438009949655
H        -1.57948601051444       0.41013177498928      -3.54143782621458
H        -0.23928456937143       1.35161447634077      -2.87763681886667
N         2.30091819560705       1.01621100813160      -2.81485540755007
S         3.62093476227148       1.67200405870907      -2.19273932594361
S         2.31484765024393      -0.54994464423735      -3.06798806757480
F         4.28265255186548       2.35609007210332      -3.48225453227477
F         2.08946866413208      -1.11000130321917      -1.52333936216533
O         3.19410089716644       2.77953032545123      -1.38489686273134
O         4.62005515707244       0.79964411142108      -1.67038641527975
O         3.51806116819778      -1.17131721330788      -3.49377603478275
O         1.07631853225209      -0.88720615607084      -3.69599298521726
