42
C12H21F3N2O3S optimized with ForceField in AMS.
N        -1.12130915075222      -1.73551454759083       0.21594617893159
N         1.10157453449220      -1.71526942958057       0.30816649150872
C        -2.51801160024712      -1.46078245944637       0.55008962888876
C         2.45990494306759      -1.40528559694211       0.75376664685382
C        -3.01264110402753      -0.17972847095781      -0.13538560621865
C         3.04651205429241      -0.22330285803398      -0.03195069195181
C        -0.04168394041209      -1.44267941476997       0.96739403513991
C        -0.64620774552573      -2.21922908810688      -0.94949316483946
C         0.73270245342012      -2.20950151770449      -0.89134794392481
C        -2.22698369613095       1.05694041847038       0.32450243123141
C         2.19714340569960       1.04646560568671       0.12347714026995
C        -2.78979669029133       2.33406651577477      -0.28983166627308
C         2.83154419389630       2.23254826338595      -0.59496467813626
H        -3.14879034938675      -2.31858989307522       0.23134036465334
H        -2.63102825988374      -1.35509296248073       1.64952865106574
H         2.45816701980564      -1.15862654438294       1.83841723896706
H         3.10536118906142      -2.29913520383929       0.61427475726002
H        -4.08734321773362      -0.04277438616641       0.11607300397264
H        -2.92837410663925      -0.29144789595522      -1.23838554383299
H         3.12338986133332      -0.49375266208672      -1.10767208264492
H         4.07344144394407      -0.02600134533381       0.34658505042705
H        -0.08694904956929      -0.97648588777477       1.94397921064525
H        -1.25444389351428      -2.52696287732569      -1.79006234591198
H         1.41335093944409      -2.50708756424071      -1.67834687798128
H        -2.26662470376037       1.14004289460887       1.43255268493043
H        -1.16581088909421       0.96249766276896       0.01610712592265
H         1.19027092515197       0.87734606337802      -0.31127753290165
H         2.08141795566327       1.29412780651529       1.20117862619989
H        -3.84275472253597       2.48442264820546       0.02947686526533
H        -2.74344117341048       2.28074662920391      -1.39847439104743
H        -2.18751912363239       3.20384115687459       0.04860684685043
H         2.93662422153325       2.01426687791949      -1.67916442909710
H         3.83042687627533       2.45606577892556      -0.16432465979660
H         2.18368669519619       3.12683389690874      -0.47513276012376
S        -1.94599829713238      -2.54125353067766       5.35751877426772
O        -2.69723020560259      -1.79263755096883       4.24805166774555
O        -3.07892863076449      -3.18716482372172       6.16823029280281
O        -1.46399608550417      -1.40859726093418       6.27540135192959
C        -0.65304699621728      -3.68142626685007       4.78944444363112
F         0.30733371754576      -2.97804194998338       4.08786417695219
F        -1.21277539708961      -4.64111006335621       3.96790785478485
F        -0.06881860036468      -4.29434073104013       5.88148084518398
