41
C11H24BF4N optimized with ADF in AMS.
N         2.26233506994778       0.08800840424747      -0.06459369753174
C         2.49720137490979      -1.40865347515177       0.07962042437282
C         3.30349391222936       0.48736919569908      -1.08816910446042
C         0.87128019265296       0.39912514693049      -0.56833655793829
C         4.01551043416804      -1.56823852894614       0.02335670028882
C         4.55102352350859      -0.31169152447637      -0.71392800028367
C         2.52913464020101       0.79607299341315       1.23218516767913
C        -0.24811770253168      -0.09042106673926       0.33307905598121
C        -1.61302511909512       0.18434734319160      -0.30034783678811
C        -2.75552736706031      -0.30148406307808       0.59014494827065
C        -4.13608681730859      -0.05003868668827      -0.01186615795836
C        -5.26631783968640      -0.53961469808620       0.89050394651987
H         1.99623285315338      -1.86965343923513      -0.78647487537429
H         2.04506902351588      -1.75011771972498       1.02244059987789
H         3.42370777430797       1.57927612775863      -1.07281935725450
H         2.90813265208319       0.17934754074904      -2.06815521165534
H         0.80220661123269      -0.07183889651551      -1.56283977942486
H         0.82910282713375       1.49298991509570      -0.70351411557117
H         4.27710961491218      -2.49848272168872      -0.50006566757177
H         4.40981047807797      -1.63688084868697       1.04667367686530
H         5.21486730834696       0.27436399610040      -0.06203811219359
H         5.12201064597785      -0.56129928517975      -1.61981033165339
H         1.81604297193485       0.46665073085076       1.99500666862644
H         3.52930041303548       0.52681015706459       1.58687722712607
H         2.45120197805727       1.87629587314592       1.04978001554557
H        -0.13955732155399      -1.16898475917384       0.52370278092833
H        -0.19598548618381       0.39427003563493       1.31987077123325
H        -1.67802499225315      -0.31683633902524      -1.28485184412219
H        -1.73134094380373       1.26783086434520      -0.49049003126607
H        -2.68595531699307       0.19630907334378       1.57475844819736
H        -2.62919985698372      -1.38228317820380       0.78596735667173
H        -4.25728479950774       1.03178401816938      -0.20573310350229
H        -4.20185178661637      -0.55113347734615      -0.99543436520606
H        -5.23582300292156      -0.03313709864639       1.86833191484454
H        -6.25291520819759      -0.34797787271769       0.44082781570723
H        -5.18209461822770      -1.62261898851440       1.07420698660036
B         1.98062656316060      -1.40756289907455       3.73088081142216
F         0.98270553861575      -1.74041301300826       2.73127194983295
F         3.26830823451851      -1.55874451095544       3.10609105182752
F         1.85876863930180      -2.24348395505032       4.83810212143449
F         1.80220664174095      -0.03443180932689       4.07421152830242
