38
C10H22BF4N optimized with ForceField in AMS.
N        -0.57568428972510       0.30991026694137       0.15830452777542
C        -1.57474904306635       1.24122513557895      -0.45772547744920
C        -0.90731455054842      -1.10775282586662      -0.18433450890934
C         0.75956715198354       0.67391187179886      -0.42217749144458
C        -3.04305164071938       0.88764237744651      -0.15557379447053
C        -2.35692565719024      -1.49824139323247       0.15082460913496
C        -3.34257300870663      -0.55845920356099      -0.53236883486348
C        -0.54387071254172       0.50571006815378       1.63407324683273
C         1.96473836504371      -0.14753439982485       0.09696657901643
C         3.26403917312583       0.32943711461819      -0.56168290349901
C         4.46342455187431      -0.46591717482842      -0.05752427910042
H        -1.46737511108278       1.24324987297710      -1.56747525528634
H        -1.39331357070926       2.28790970130734      -0.12198534731945
H        -0.24846456729741      -1.81482743805207       0.36409668373028
H        -0.74706388984500      -1.28994169958611      -1.27196966541190
H         0.97535292637370       1.75032693139731      -0.22602446858946
H         0.73441955795430       0.56161016548989      -1.53126193637088
H        -3.70263079463115       1.55630379714527      -0.75019471665379
H        -3.28902515698575       1.06650771744001       0.91108114281356
H        -2.51963040796706      -1.49047964733730       1.24931566484716
H        -2.54334540550827      -2.53582379831475      -0.20241263074971
H        -4.37809060509979      -0.81641811647342      -0.22287290565682
H        -3.27153723732680      -0.68001450449230      -1.63585077810724
H        -1.54844879655259       0.42893337432656       2.09228810603132
H         0.07546005161644      -0.26768122951468       2.13575030255333
H        -0.13765221801141       1.50756215783968       1.89777085592873
H         1.83271137601149      -1.22280022827151      -0.14188250307587
H         2.07390894549005      -0.02845147363763       1.19436836242896
H         3.42781918491949       1.40561729690565      -0.33520358327521
H         3.19261443600881       0.20892931491254      -1.66451260081405
H         4.34174597593417      -1.54391657343965      -0.29581026178346
H         4.57664660008925      -0.34214566082191       1.04044964663375
H         5.38133448728608      -0.09356299749723      -0.55410851734851
B         8.37962911683787       0.04296268417745      -0.66044166791784
F         8.06721960223689       1.07120348699131       0.26838266964168
F         9.78859173296732      -0.04862410513578      -0.81060633165702
F         7.78815998325971       0.34439925769128      -1.91627751614965
F         7.87342780190213      -1.19548001025137      -0.18325618186456
