70
C20H30F18NP optimized with ForceField in AMS.
N        -0.05740546371882       1.48615262344423       0.01590168496486
C         0.55314823077088       2.41175646211831       1.02017624915891
C        -0.74422775011334       2.38134166375932      -0.96494502122340
C         1.01389509803968       0.70746811008628      -0.68750716759840
C        -1.05787928119863       0.60038678116900       0.69619685667815
C         0.03251786476602       3.81212569782962       0.75504084085146
C        -0.27881938182906       3.80163554329302      -0.71439860059571
C         1.77320128033344      -0.29654888745370       0.21300131080137
C        -1.75364394768888      -0.41733632007535      -0.23967932910228
C         2.97510657768615      -0.89551250644702      -0.52804704102878
C        -2.87206083293202      -1.16362462807046       0.49842418774162
C         3.66570791824654      -1.96877353096986       0.32111663818164
C        -3.56396323848560      -2.17237328842902      -0.42641563728318
C         4.85601774007542      -2.57515015158461      -0.41561544324243
C        -4.65671422172174      -2.93925643278177       0.31212655520147
H         1.66330351329577       2.45899172934608       0.93080723949404
H         0.33722429446116       2.12291581185354       2.07442958530986
H        -1.85113677995106       2.37941454873902      -0.83154193716281
H        -0.55525896183436       2.10097637830969      -2.02658337640862
H         1.75303593297707       1.41288714567523      -1.13452484866367
H         0.58760883672597       0.14610192835494      -1.54834757734606
H        -1.84263893420875       1.22942894864424       1.17807950341745
H        -0.58012090599224       0.03996053163035       1.53010639166789
H         0.78390875719098       4.59096623221589       1.00943985833945
H        -0.89987528905111       3.98528612705813       1.33747017329090
H        -1.06127537936725       4.54747566716293      -0.97437952741238
H         0.64533225182315       4.00572577534433      -1.29964971908128
H         1.09609085851839      -1.12645209340829       0.50395903482559
H         2.13316184685723       0.19899784817491       1.13930152451840
H        -1.01897182458666      -1.16651074346505      -0.60079636772464
H        -2.18723812277578       0.09784051679041      -1.12248807360479
H         3.70195125154912      -0.08668305595437      -0.76264577917147
H         2.63010026026405      -1.35086961902241      -1.48274058257409
H        -3.62340451177566      -0.43162130552908       0.86846680680378
H        -2.43989616694585      -1.70012770690100       1.37215044481651
H         2.94371115868082      -2.77895281186585       0.56272378444512
H         4.01852387973516      -1.51989432310843       1.27305058476784
H        -2.81753335802417      -2.89813799600612      -0.81672169836306
H        -4.01885853820812      -1.63745687325855      -1.28836251713684
H         5.33853081912414      -3.34113654776534       0.22668254453365
H         4.51937508597969      -3.06292362690751      -1.35491187989920
H         5.60375610917899      -1.79014266929139      -0.65752671169048
H        -5.14857761519484      -3.64920786788085      -0.38573990981885
H        -4.22018849063717      -3.51551530680672       1.15549374201916
H        -5.42375180621370      -2.23793474292055       0.70443162682167
P         7.87695081677409       0.08565034350286       2.31766873427546
F         7.85325401622298       1.24330549334223       1.04183190418501
F         9.09386712644590       0.45994306713663       3.47995047720077
F         6.41567899972155      -0.28511238127972       1.49208279751679
C         7.12410357118292       1.62168780865868       3.23232057204323
C         9.30553794631057      -0.39304144073260       1.09831443761444
C         7.41284648792089      -1.61733106540341       3.10566159361813
C         5.77967782495114       2.18414816183450       2.69545759125797
C        10.22507687686702      -1.56088602706014       1.51263071962154
C         6.25209176014191      -1.63750555062498       4.11748636438272
F         8.03584433435703       2.66883729865941       3.17807452967904
F         6.94093990136601       1.32501511818168       4.56827977677578
F        10.14909028651868       0.69981095068650       0.91787070666106
F         8.75664032301744      -0.72784798475525      -0.13271254281124
F         8.51060587335336      -2.09978847853100       3.79379443526793
F         7.11711260780494      -2.53203694655390       2.10531794426361
F         5.37001301439440       3.21623255502873       3.52072884258708
F         4.78140373017581       1.23367957350150       2.68939442654976
F         5.91470958002963       2.69965044661306       1.41930526794234
F        11.27223655392821      -1.64182828568710       0.61133164296330
F        10.76645301840705      -1.35764606382949       2.76777105561946
F         9.55992313057866      -2.76998600332589       1.47534287015748
F         6.61081007862580      -1.00533879242197       5.29172341650441
F         5.95930319144676      -2.95323390128121       4.43037847043827
F         5.10947095843222      -1.06436437325531       3.60741520896727
