29
C9H12F3NO3S optimized with ADF in AMS.
N        -0.07144075299899      -0.47991067922917      -0.38977255495209
C         1.28249772951724       0.07174089728180      -0.66090460664725
C         2.09871528025197       0.22017422278150       0.62111497543487
C         3.58695568531362       0.29231124591419       0.29598398423312
C        -0.89875410755854       0.18668111301968       0.45205300854722
C        -0.42409678312753      -1.66962561072323      -0.91623287887775
C        -2.13373014994375      -0.33256952117555       0.77372947955640
C        -1.66053224190472      -2.22529844682156      -0.62531772689263
C        -2.52731241307032      -1.55403363056082       0.22399931508544
H         1.77202888420042      -0.64603891282203      -1.33003058134155
H         1.14288094328491       1.02866281260607      -1.19100320687779
H         1.91043650574860      -0.66795041744702       1.24154031447252
H         1.77950517977730       1.11589466907381       1.18236432741865
H         3.90247271476569      -0.64419775000491      -0.18815494960509
H         4.17190363511206       0.40499172515560       1.22024017652791
H         3.82638370549548       1.13973231595898      -0.36635967499677
H        -0.52114991091783       1.12309822789998       0.85636954683562
H         0.32625245563478      -2.17860619753508      -1.51556751636399
H        -2.77548452198612       0.21245498762523       1.46526769706774
H        -1.89402208803401      -3.20443463607133      -1.03860311618173
H        -3.49577131044988      -1.98658260617199       0.48042330505860
S         1.48790771274560      -3.95316006376117       0.60283892158684
O         0.16537386947782      -4.35158852592340       0.07494137633651
O         2.04577609818779      -2.74828414606572      -0.06730063065218
O         2.43877812296222      -5.02190720950984       0.88845561705738
C         1.05395292087065      -3.27320258609260       2.30246973132909
F         0.57830013134958      -4.23141490299014       3.13084492568277
F         0.08250106035376      -2.29766501978139       2.20776672789458
F         2.13023129084219      -2.69346640012990       2.90302171876358
