26
C6H11F6N2P optimized with DFTB in AMS.
N        -0.00014464003121       1.06638438531102       0.69897035041042
N         1.79930242961603       0.56441691730783       1.76386273780381
C        -0.90760411198876       1.35810289319038      -0.40664274116769
C         1.25807101035546       0.65783471801708       0.55375818076265
C        -0.26454233373839       1.24565101366407       2.02875160987623
C         0.87545292265703       0.93683919039140       2.70141243639393
C        -1.40061988705481       0.06473258188295      -1.04359323337599
C         3.21385182277519       0.34776268876785       2.01940733431526
H        -1.74152799524385       1.93949560506268      -0.00718112171520
H        -0.35540730149245       1.96628463782620      -1.12881730810933
H         1.76165117315851       0.47372991765093      -0.37893814560737
H        -1.22261988365951       1.58394281974602       2.38245979283569
H         1.10235898802737       0.95185481103150       3.75310791175295
H        -0.56214220021095      -0.50844593986556      -1.43754334902155
H        -2.07696180654751       0.30579468717710      -1.86214270069192
H        -1.93184761636787      -0.54444905115706      -0.31242652276481
H         3.33542239830170      -0.18109163765975       2.96320175993647
H         3.63656529637483      -0.22810232271745       1.19921826851721
H         3.70195645894945       1.32298624053906       2.06274743889769
P         3.06631016230090       3.23387500816133      -0.59698937707742
F         2.44647130391495       4.72710047263285      -0.77190921663440
F         2.31850351719876       3.09685207587680       0.89487828209189
F         1.67796192075490       2.57564364483697      -1.29179874973900
F         3.63235465938297       1.65839003445844      -0.39472320207757
F         3.76676089958048       3.29046102089920      -2.06208978605100
F         4.40727751578677       3.80323832096816       0.13049635183902
