37
C9H13F6N3O4S2 optimized with ADF in AMS.
N         0.64468056834347      -0.84069543752052      -1.33821430905368
N        -1.49151091879804      -1.00854950154212      -1.67940021789553
C         2.02649728727659      -0.34281129223068      -1.39642255496222
C         2.33099531918124       0.68971434372166      -0.31546429591830
C        -0.41784274481703      -0.23654823233998      -1.88888359209842
C         0.23880365447736      -2.03694109706637      -0.77998540273053
C        -1.10076685627573      -2.14766858925016      -1.00308347449726
C         1.51576205512315       1.97213863866959      -0.45272557026580
C        -2.81123047811994      -0.77914986559243      -2.25853644341983
H         2.17516226300869       0.07921439188646      -2.40115794987881
H         2.67555085588567      -1.22567706355211      -1.30684448846878
H         2.18201143113513       0.23735025305249       0.68118822794361
H         3.40696702363493       0.92009813954398      -0.40344294685843
H        -0.38230436236639       0.68548523708441      -2.45976060175762
H         0.93863736635902      -2.71347443851473      -0.30595754649401
H        -1.79774584104164      -2.94259530828239      -0.76951707815850
H         0.45015591412134       1.79834502679371      -0.23719074896950
H         1.60038535414988       2.38202456108138      -1.47170923651413
H         1.87061137977443       2.73502280602615       0.25627475408169
H        -2.89812962709774       0.27904603748116      -2.52660566114730
H        -2.90099984824622      -1.40330918287267      -3.15824309390155
H        -3.57599044444247      -1.03514351721026      -1.51481330849081
N        -0.17819236576263      -0.70502538630470      -4.57864186687540
S        -0.40924007135875      -2.18877668750105      -5.17318303378054
S         0.96222416771451       0.34423259584476      -5.00737338044139
C         1.10331754728955      -3.23334102855062      -4.68406930181475
C         0.53286524480723       0.99225750967702      -6.73488096269856
O        -1.47754465561409      -2.76585186810500      -4.35613658122173
O        -0.45548104772873      -2.27917314653051      -6.62380392646484
O         2.30835506722892      -0.20470601781657      -5.13437806270044
O         0.75493865221647       1.50743448847933      -4.13157763776718
F         0.73459799684106      -4.53665628166311      -4.65310667643408
F         1.54507625167541      -2.89259953734602      -3.43855009299638
F         2.11712873648828      -3.09555042209219      -5.55379589729238
F         1.21046816532484       2.14791452902150      -6.93923850745201
F        -0.79292016541456       1.24257122347233      -6.82840159840398
F         0.88821877892680       0.10842432744825      -7.68278412360065
