48
C12H22F6N2O4S2 optimized with ADF in AMS.
N         0.52712247264207      -0.89830546432778      -0.00063571642933
C         0.20227072054955      -2.00277595265193      -0.99980628291991
C        -0.77207600249858      -0.12296085203882       0.06846859511680
C        -0.78516424473435      -1.38601811231703      -2.00087995213999
C        -1.25484694821792      -0.05225695604514      -1.37138364851742
C         1.65234924659962      -0.04241429855248      -0.56882384636469
C         0.87164639138527      -1.45311155990889       1.36086519269643
C         2.08627152650888       1.10949263064983       0.32104148192436
C         2.15929248981144      -2.25504367200856       1.40947056288466
C         3.13666956315308       1.95452576595244      -0.40409142158424
C         2.33781952018769      -2.88042096144748       2.79214662638901
H         1.13532874050262      -2.34559749186409      -1.46085766648628
H        -0.24735623056078      -2.82018712128546      -0.41755340932861
H        -1.45175785624902      -0.72883976395428       0.68866361672656
H        -0.59965828817298       0.84117899843696       0.56197462041884
H        -0.29249539898067      -1.20941104325841      -2.96675161928516
H        -1.62726635768161      -2.07427673613535      -2.16019281596602
H        -2.34619607004053       0.07664137232224      -1.40483256047557
H        -0.80650705838221       0.80383271200737      -1.89756379356062
H         2.48579363309866      -0.73111946453025      -0.76739546235829
H         1.30038602930849       0.31860866098169      -1.54522539483870
H         0.90507984698902      -0.59643229918768       2.05209929054392
H         0.01284078711967      -2.08170695275352       1.64814628159483
H         1.22878409087895       1.75108264104420       0.58702780779829
H         2.51254070102408       0.72883773404019       1.26454260072171
H         3.02275580613664      -1.61163348681007       1.18012738452806
H         2.15264372987822      -3.03858764005035       0.63606353429835
H         4.00151158101886       1.34306616492477      -0.69838796941263
H         2.72271048503210       2.39223419484707      -1.32459371876011
H         3.48403801080489       2.77101895276734       0.24500421623172
H         2.38353044878268      -2.11178658763025       3.58041610013706
H         1.51003049332315      -3.56614192494313       3.03243927120696
H         3.27258522963050      -3.45679478205898       2.82880593906179
N         2.44186464937375      -2.15644515512349      -3.54984528949695
S         3.62264070097621      -3.01995808147588      -2.85020982015999
S         2.67374888749975      -0.62157748387995      -3.94602444535798
C         2.82474182656913      -4.70799828481487      -3.09895887424436
C         3.27428759784180      -0.62763224484295      -5.73545423107242
O         4.89389323900548      -3.07587048492484      -3.55582906817015
O         3.61872588262403      -2.84858780471921      -1.38932245013220
O         3.73591243088965       0.05878625681601      -3.20665050547251
O         1.35377976265671       0.01159126230030      -4.03227120498070
F         3.67789454332989      -5.64525187888754      -2.62526761551507
F         2.57125334295282      -4.96410444699067      -4.39628032276916
F         1.65772293944074      -4.80517598187459      -2.40094815059967
F         3.19539390326916       0.63580721103198      -6.22453074624301
F         2.50292541125972      -1.43476068028458      -6.50054608978189
F         4.55353383146363      -1.04169124224391      -5.80888652615570
