54
C16H36ClN optimized with ADF in AMS.
N         0.21041419214065      -0.00101946940220       0.01238972747553
C         1.08914678136965      -1.01742941983014       0.76151122077845
C        -0.68612877565817       0.72315719028540       0.99242934386646
C        -0.60898118568535      -0.73546583584359      -1.02510588967497
C         1.12597573719208       1.02845743370601      -0.67461874299232
C         1.60072988151136      -0.57593852279301       2.11954074306497
C        -1.76411568008924       1.61245515356463       0.39196346691329
C        -1.70022380625022      -1.65467529498397      -0.49835817643295
C         1.71212992253902       0.60910952495945      -2.00930770773018
C         2.53696745150967      -1.65720318382898       2.66640779699691
C        -2.52900174367544       2.32850123817266       1.50868590730375
C        -2.41268889624225      -2.33806680245498      -1.66878269884886
C         2.68852527507771       1.69176066752139      -2.47754902497836
C         3.07300407293295      -1.27884128767041       4.04348157545043
C        -3.62714100864981       3.23610195988767       0.96215670631005
C        -3.51689360012335      -3.27974389944906      -1.19762308985789
C         3.31986778039763       1.32622788370024      -3.81703243397891
H         1.97411962993051      -1.18064400544940       0.11711016353117
H         0.48853489043721      -1.93137226532925       0.85794722498985
H        -0.01069823096982       1.32045027758044       1.62116757493534
H        -1.13977208885444      -0.04756226303951       1.63323090916143
H         0.11527899445779      -1.31096712010862      -1.61843106076745
H        -1.04198651476977       0.03190949247237      -1.68376754857787
H         1.97463493177166       1.18269143063379       0.01828857756919
H         0.53019507071935       1.94397030099039      -0.78703650243089
H         0.78226642697119      -0.40297993608852       2.83876563073554
H         2.20614239057057       0.33906067466881       1.99903181834624
H        -2.47766226048255       1.02609904685081      -0.20994855224047
H        -1.32600324575073       2.36917004098971      -0.27828845254439
H        -2.44330237828284      -1.09726057244322       0.09500976554967
H        -1.28053658023696      -2.43079572605777       0.16120689534113
H         0.93584961968836       0.45598785343179      -2.77815604222363
H         2.30265003917607      -0.31317207821676      -1.87059948776770
H         3.37661672171049      -1.74455821617720       1.95410526037511
H         2.00769166572312      -2.62764441389824       2.71490233929949
H        -1.81999981981352       2.92291442002061       2.11210507284531
H        -2.96881525956800       1.57994304976555       2.19211131297194
H        -1.67378676885601      -2.90001596815370      -2.26723172775711
H        -2.83788527094303      -1.56990607039267      -2.33959443718065
H         3.47732263947971       1.76447092608138      -1.70755918466207
H         2.16927167333263       2.66614864267887      -2.55066595667028
H         2.25703896943733      -1.12791809113030       4.77035837488998
H         3.65400698896416      -0.34535154408723       3.97681906996670
H         3.73942886859862      -2.06002436771836       4.44015801301761
H        -4.36170847546846       2.66072567437553       0.37616569155964
H        -3.20556185685398       4.01208053509734       0.30375822368740
H        -4.16775604093251       3.74230132005666       1.77586424692690
H        -4.28041983770255      -2.73629711421534      -0.61825680624704
H        -3.10888528686193      -4.07460172555860      -0.55335057696377
H        -4.01979237732647      -3.76178183483363      -2.04939501448000
H         2.55955670806716       1.19314734989425      -4.60501306482313
H         3.88600185150395       0.38618941594736      -3.71921425447580
H         4.02170339240540       2.10566548483029      -4.15141834523988
Cl        4.17991580503137      -0.00441756880873       0.11983583438712
