19
C7H10ClN optimized with DFTB in AMS.
N         0.17290976982189      -0.03181390948480      -0.36266210606692
C         1.62198222009834      -0.08519022943625      -0.61272626939131
C        -0.40557597836756       1.16168228240137      -0.16828311918615
C        -0.53036681063429      -1.17356941590590      -0.29002496953910
C         2.37168785756336       0.02492689238505       0.71028198779748
C        -1.75862153310941       1.23754217913468       0.10547861251653
C        -1.88017507160269      -1.14521897171906      -0.01658119763928
C        -2.51184133680798       0.07771671203014       0.18704243245339
H         1.84608358743761      -1.02453554485622      -1.12291265220303
H         1.88325067917733       0.76969361416432      -1.24588324004844
H         0.26085197116545       2.04005220947884      -0.26349708130484
H         0.00775022075110      -2.09874803292473      -0.45866786452660
H         2.22196441168484       1.01752689082886       1.13321537691755
H         3.43439415747481      -0.11402467347728       0.51851583483408
H         2.03120815853654      -0.73182322086805       1.41713553925952
H        -2.21003033701718       2.21027175264590       0.25271998002009
H        -2.43194256634377      -2.07519852809532       0.03592831262162
H        -3.57286363298826       0.11571183878232       0.40283449896650
Cl        1.93024680155988       3.06249019501613      -0.63870913228108
