41
C13H25ClN2 optimized with ADF in AMS.
N         1.31655850427043       2.12284311268447       0.31989480509065
N        -0.83244867850596       2.27297466615661       0.02024827231234
C         2.72329438756818       1.77286966549301       0.07620687393687
C        -2.15086179982350       2.12718726927617      -0.61149666751157
C         2.98870275513018       0.29645613723641       0.35421240613262
C        -2.43683355903771       0.66647651684070      -0.95490048566180
C         2.22469582748890      -0.63991480591540      -0.57598935040786
C        -2.44966310842151      -0.24694238160974       0.26750692810048
C         0.33622019671621       2.03702630771319      -0.59827826198640
C         0.75152874264584       2.34070218222379       1.55487082482284
C        -0.59547199863350       2.48037605532781       1.35882322902071
C         2.41749186618297      -2.10676524795025      -0.19518369009602
C        -2.56451664568202      -1.72563559759392      -0.10457859506699
C         1.63476132974444      -3.04321760818167      -1.11136152066769
C        -2.46684835773388      -2.62428899391520       1.12675572137903
H         3.32701831712782       2.42653573601114       0.72407264686072
H         2.93968076829909       2.04192739146364      -0.97062289822334
H        -2.17451539745286       2.77650786927844      -1.50065234873651
H        -2.88370575639286       2.51436174163374       0.11221764957023
H         2.67310568082737       0.07107235529132       1.39096631981814
H         4.07808678223261       0.13411136662522       0.26497411083024
H        -3.40381907423595       0.63146907835394      -1.48972187217869
H        -1.67422976966065       0.31406451259462      -1.67497055345289
H         2.52646658771902      -0.47229343149939      -1.63059054778309
H         1.14525993308287      -0.42489043052021      -0.47819171026848
H        -3.29424646822026       0.03486256049145       0.92640371357548
H        -1.52313369016533      -0.12126568132406       0.86403398642084
H         0.47117247963678       1.83121591232937      -1.65132632260222
H         1.33824914733451       2.35381462038020       2.46318928686783
H        -1.40070782928247       2.59904411928773       2.07113953135693
H         2.06734607888111      -2.21940165635739       0.84647290516366
H         3.49376227992871      -2.35994334337645      -0.22159412500117
H        -3.50998353913543      -1.90987918624266      -0.65058014186135
H        -1.74412387868447      -1.97493934975873      -0.80368229416797
H         1.95703136596161      -2.94156840821375      -2.16144427086859
H         0.55752342191170      -2.81602525555029      -1.06218707623534
H         1.76542445546266      -4.09660345992376      -0.81874091669980
H        -3.29514712919470      -2.42170088895746       1.82509796122801
H        -1.52310280463482      -2.42676000640471       1.66156455574511
H        -2.50954105552460      -3.68969854498211       0.85099492169951
Cl        0.44214279856947      -0.42827760231583       2.45428362084556
