47
C13H28BF4N optimized with DFTB in AMS.
N        -1.58629028849988       0.46586396574213      -0.13071659418347
C        -2.59466179327351       0.30017595007839      -1.22772530419250
C        -1.74795272756980      -0.67943342174633       0.83354825094281
C        -0.22273652943606       0.36600555049767      -0.76964400851909
C        -1.74771117729154       1.77526379391040       0.59245635308693
C        -4.02716607824254       0.24761338618134      -0.70844055937909
C        -3.15803955751442      -0.79353632109195       1.39430286459231
C        -4.19836902430570      -0.90309340744587       0.28262219507030
C         0.95586857529213       0.59330793037389       0.17428928987368
C        -1.63297716089994       3.00798009255461      -0.28852356848615
C         2.26636123615166       0.34018868812891      -0.57810486239352
C         3.46402780542522       0.56829325473751       0.34930058461587
C         4.78735348214123       0.31363539833932      -0.37825701116520
C         5.98160836135130       0.54685587163227       0.54572140988813
H        -2.35281489246910      -0.63540636221067      -1.74064076674970
H        -2.46721880413090       1.12345642469618      -1.93309752734997
H        -1.04500973119574      -0.53242050021120       1.65423527550072
H        -1.48335517995853      -1.58882713332869       0.28603924760805
H        -0.19764501465553       1.09259235995524      -1.58648188286135
H        -0.16108281013896      -0.63498450329556      -1.20701324106840
H        -2.71932065352677       1.76189301693921       1.08491046205986
H        -0.98463089807127       1.80229137769943       1.37077756496239
H        -4.68419779063140       0.10123639832789      -1.57027945486062
H        -4.30047418387905       1.19640679409642      -0.24014084897977
H        -3.37125877711284       0.05625545193626       2.04610931712347
H        -3.18242122891259      -1.69280103406592       2.01485686593212
H        -5.20410922070926      -0.87455863336119       0.70829124740801
H        -4.07859071890918      -1.85594087422933      -0.24436414537786
H         0.95432328938411       1.61640105297284       0.55437021979795
H         0.89864398119061      -0.07817923403271       1.03255278983963
H        -0.66920898775434       3.06243230516957      -0.79194305641372
H        -2.42707479322865       3.06373677882777      -1.03278660526713
H        -1.72062054433421       3.87587313687665       0.36499668547765
H         2.33353255367735       1.01271013395616      -1.44123491613928
H         2.28256068822250      -0.68916444375893      -0.95425871058128
H         3.38489647665936      -0.10025416692811       1.21225608152038
H         3.44226954156094       1.59746259436923       0.72188745548605
H         4.80845667908281      -0.71781279317264      -0.74723345195177
H         4.86188697298102       0.97971983894705      -1.24516027790065
H         5.93090385375580      -0.11721564372212       1.40950096771509
H         6.91223631331190       0.35265659008222       0.01173384847167
H         5.99319481321244       1.57791763694186       0.90156546958118
B        -0.24085491389162       0.88985062676095       3.55885848518448
F         0.00107125241365       1.05761872879550       4.88859315294833
F         0.26413307108748      -0.34448486951624       3.07798153107339
F         0.34716758329358       1.91460069767686       2.77758094711949
F        -1.63824801305168       0.90137525491376       3.27458532824059
