51
C13H24F6N2O4S2 optimized with DFTB in AMS.
N         0.24919320661977      -0.47594117855177      -0.71519221120244
C        -0.44761437661078      -0.85628153720736      -1.99315722628127
C        -0.20214866713233      -1.40780132484976       0.37229823814879
C         1.72787572367574      -0.68483826351248      -0.94642721104895
C        -0.04486424141076       0.94252767732973      -0.32034075957532
C        -1.96376339381981      -0.87123593152136      -1.87486667786337
C        -1.71715747299437      -1.45743821756920       0.53710866010533
C        -2.40099755717709      -1.83611274021859      -0.77500322476225
C         2.62571261537991      -0.36159699134730       0.24302140645070
C         0.48246673536608       1.99344949572114      -1.28653494971804
C         4.08512825180703      -0.61997987334769      -0.15778021449871
C         5.02468695969632      -0.42960647960512       1.02926610690236
H        -0.09326145096554      -1.85426173828631      -2.25364001244666
H        -0.11857313285508      -0.16784083371829      -2.77096338770547
H         0.26521234594593      -1.08543966341065       1.30435879366948
H         0.17354946515637      -2.39918459831080       0.11012089165405
H         2.00639322811315      -0.08316495798623      -1.81249556116689
H         1.85124976885071      -1.73309463374002      -1.22119861546475
H        -1.12809969941992       1.04117931623774      -0.23345505765887
H         0.38979030408921       1.09593898800071       0.67013202728489
H        -2.35805544759181      -1.20367382751342      -2.83839792565934
H        -2.35852735355971       0.13053675059892      -1.68250015573767
H        -2.09888150957381      -0.49855251059607       0.89952896483186
H        -1.93396392781766      -2.20943901764090       1.30041008779204
H        -3.48564505758180      -1.79826699328707      -0.65116006628628
H        -2.12210040614855      -2.85721963370262      -1.05216581625150
H         2.37340940099597      -0.99661981267663       1.09728617985596
H         2.51504268399796       0.68227597616498       0.55166887310707
H         0.15130666360529       2.96707923524352      -0.92531342195124
H         1.56955170030810       1.99762214520583      -1.32728200452212
H         0.09113242603244       1.85167251264776      -2.29186583184980
H         4.36632290311454       0.06645774787765      -0.96117628393853
H         4.17616656807166      -1.63944748134436      -0.54143730310445
H         4.76867563447195      -1.11760946237309       1.83626703470589
H         4.96497022327624       0.59156345523295       1.40964677522075
H         6.05085412271459      -0.62530484513404       0.71922599075190
N         2.82265666355824      -3.60954234546745      -4.51804752516612
S         2.81966948777179      -4.15216933440750      -3.01561006983957
S         2.55475688071747      -2.04345968158228      -4.71412091996661
C         1.00557049180131      -4.47189413764698      -2.58119952700235
C         4.17176242829771      -1.15220422708191      -4.32603847484986
O         3.40597412667116      -5.46041582478125      -3.00875296958190
O         3.23973811283483      -3.20493448973100      -1.99817675001587
O         1.61604277047342      -1.44783081635212      -3.76862703985307
O         2.33056163692212      -1.80409330566776      -6.11128398150427
F         0.71618946259368      -3.88514725048207      -1.40562799657629
F         0.76166481558797      -5.76210127283792      -2.46203869511975
F         0.17762450183231      -3.96330726054147      -3.48373264217172
F         4.54466860554420      -0.42369123994458      -5.36365721172924
F         5.13521703217766      -2.00328815496889      -4.02913004051984
F         3.98873915248615      -0.33565904381662      -3.28767376009069
