36
C8H18F2N2O4S2 optimized with ADF in AMS.
N        -0.14430576967707       0.45290296058230       0.14835625638416
C         0.89240894323206      -0.64615050727328       0.23057395550180
C         0.61130279663284       1.65556880767520       0.69376685067547
C         2.20738629555327       0.00902534432800      -0.19030536525805
C         2.03491034807271       1.51250553207627       0.15344885278138
C        -1.35475543594597       0.15235494113895       1.00586364740493
C        -0.52160604178198       0.68633947418561      -1.30387351377365
C        -2.15183320629954      -1.05051622041345       0.55069197203940
C        -1.61945711142172       1.71130209788567      -1.50984931363948
H         0.58109852556215      -1.49393163938227      -0.39220318952241
H         0.91722264430794      -0.95745778714946       1.28551529285563
H         0.56697122912199       1.58357066968583       1.78982790031296
H         0.09615417988012       2.57140394779762       0.38971764750525
H         2.39487739941944      -0.13638619603535      -1.26441496427120
H         3.04756644591221      -0.45225495905533       0.34761356149448
H         2.75163263036765       1.85140023806806       0.91450336781354
H         2.19124081659008       2.14263082685634      -0.73448295748423
H        -0.96638986052766       0.00736349373219       2.02388978759734
H        -1.95626270151401       1.07028072186387       1.02649760209202
H         0.40450105627106       0.99814290226557      -1.80655900856740
H        -0.80856207007844      -0.29580139248405      -1.70758378304801
H        -2.97592379566113      -1.18384950833624       1.26674771373309
H        -2.60061348872539      -0.91205782042011      -0.44344733340875
H        -1.55905693950324      -1.97718811915579       0.54998716356118
H        -1.71204044968387       1.88855995120904      -2.59216111679204
H        -2.59325287107241       1.35642169782594      -1.14614176902910
H        -1.40455339445365       2.67687979309678      -1.02864264693644
N        -1.91263992777626       3.09083689738152       2.23898302086141
S        -1.22253677148269       4.49961918200840       1.90693457411644
S        -1.78850320291266       2.34307285502795       3.65361821599720
F         0.38678018052954       4.26927453989763       2.29308253048988
F        -2.29695206530353       3.42827124071320       4.76694042818885
O        -1.19994591095643       4.61324327939508       0.45346146227201
O        -1.62237891471520       5.61494770293434       2.73423466925562
O        -0.41624072908059       2.03511871439451       4.03656168281719
O        -2.77338060517960       1.27552247747945       3.66376890427952
