37
C13H21NO2 optimized with DFTB in AMS.
N         0.59834345944156      -0.19082952460576      -1.06094942217691
C        -2.51753129092989       1.69474268548489       0.07285410118258
C        -1.44712871316085       0.59885914703982       0.08996646334652
C        -3.44564367680370       1.62575089309366       1.29162579784230
C        -0.55429415974161       0.70822651633030      -1.14958258949706
C        -4.39935755990002       0.42719404630382       1.24155606101352
C        -5.34928322972110       0.42658488721630       2.43852367140526
C         0.32895404807808      -1.60393613820813      -1.12176599805821
C         1.85312121173848       0.29171953860428      -1.30350356140913
C         1.55388135180770      -2.42455910537581      -0.88293778538144
C         2.94771846231948      -0.50189246692789      -1.28071734345284
C         2.78198799288920      -1.90013122664554      -1.00968410162341
H        -3.11148458337087       1.61005059896270      -0.84382681327243
H        -2.02657383985283       2.67424060722164       0.06095702267447
H        -0.83066633219681       0.69293106340153       0.98968235575957
H        -1.92643969743975      -0.38265736712962       0.10431527608001
H        -2.84444384031063       1.58112278131793       2.20651808176661
H        -4.03661228895261       2.54749254284609       1.32899027104040
H        -0.17275897004802       1.72968847092358      -1.24060664586919
H        -1.13208089922308       0.47525880354312      -2.05172798972093
H        -4.98246920915043       0.46551681433835       0.31521947152707
H        -3.82838060003595      -0.50609506318770       1.23740892539741
H        -5.94565336314331       1.34019053371399       2.45576236507624
H        -6.02454931581507      -0.42745503810538       2.37971031279226
H        -4.78814835023507       0.36169083775459       3.37204328977602
H        -0.48356982903882      -1.85998875275481      -0.42874673907608
H         1.92343438681545       1.36509715906048      -1.44458528190080
H         1.38394158285651      -3.47391055798886      -0.67800329556695
H         3.93415347040654      -0.08636583916330      -1.43103930661750
H         3.66514082795815      -2.51501882592006      -0.87570023563098
C        -1.83344595693670      -2.47645238816291      -4.06304050429925
C        -1.48662977554199      -2.11190926958966      -2.63657490266118
O        -0.18141704894603      -1.93623389769868      -2.47978606976892
O        -2.30855591887279      -1.99204233610106      -1.76358866870075
H        -2.31817220677579      -1.61788157142233      -4.52649544011809
H        -0.94105199750759      -2.73691670439448      -4.62599762572657
H        -2.53722995445995      -3.30622985587506      -4.05769073375160
