44
C12H23F6N2P optimized with ForceField in AMS.
N         0.19400358918392       2.29617303196529      -0.21952214808516
N        -1.87564302793775       1.48190753138698      -0.18923901901249
C         1.57502223943670       2.52083764998034      -0.64346079483900
C         2.53162387909001       1.53185507035517       0.03941770232610
C        -3.06802378592780       0.73442449394606      -0.58538347165251
C         2.13331617014618       0.07246660198953      -0.22664561745309
C        -3.11224882509561      -0.63868571027838       0.10062288860305
C        -0.77502747009701       1.69391838549655      -0.93627335521221
C        -0.31456767231179       2.48219431067712       1.01566831640051
C        -1.59891450359704       1.97802769757192       1.03407636296294
C         3.15580043779392      -0.90709584528882       0.35649480244581
C        -1.94112287970112      -1.53277862374058      -0.33227109770202
C         2.70251432029009      -2.35121313357936       0.15443588542535
C        -2.01410236223536      -2.90499619001279       0.32891153873194
H         1.87344358264878       3.56096747203047      -0.39045605825995
H         1.65686879319889       2.40640725187671      -1.74693557611890
H         3.55605700837187       1.71274490518059      -0.34970821293244
H         2.54037932410799       1.72247527020779       1.13480476494071
H        -3.97283001052887       1.31621290525145      -0.30706692076574
H        -3.08392581027624       0.59723346231700      -1.68928146460341
H         2.04322645474140      -0.09622791547199      -1.32244635767366
H         1.14848421507762      -0.12427895259899       0.24566027312944
H        -4.07004435825931      -1.13517583735152      -0.16708234853998
H        -3.09444312881975      -0.50239787821460       1.20405351718573
H        -0.65430522423938       1.34866315540106      -1.95604216059437
H         0.22502684209454       2.90560818983299       1.85283622008012
H        -2.26320862139573       1.93488983162364       1.88734124318048
H         3.27819817377488      -0.71876063646936       1.44546239228677
H         4.13906279838966      -0.76282072177782      -0.14083028576600
H        -1.95271844793461      -1.66193995831598      -1.43641588588654
H        -0.98052893515822      -1.05956898740829      -0.04483230633310
H         2.59353449287090      -2.57387879619386      -0.92853581765840
H         1.72915085801018      -2.52573600570565       0.66171088008957
H         3.45636815944662      -3.04246265930470       0.58590866274222
H        -1.99158236420390      -2.80202214818304       1.43477903595200
H        -1.14131557620800      -3.51489424608734       0.01270462535684
H        -2.94443077606071      -3.43060482665818       0.02606713872288
P         7.52462388840627       0.50976269206734      -0.22323869128786
F         8.27591809308779       1.30033905687643       1.10403577708481
F         9.02848726427141      -0.28099986722884      -0.47736354889778
F         6.97138615578952      -0.77803842549577       0.77016880804479
F         6.74352677029809      -0.31372446348756      -1.51294451375345
F         6.13525570685566       1.44501468168727       0.15471813750338
F         7.98832041620529       1.70825094843175      -1.36344335746737
