44
C12H24F3NO3S optimized with ForceField in AMS.
N        -0.84327321575792      -0.19967458837715       0.02293340488921
C        -1.17959622040452      -1.23783841909925      -1.00035870449459
C        -1.97977146959372      -0.23117568856762       0.99427390095722
C         0.42469688168149      -0.56548755824958       0.73451489726201
C        -2.60428920431251      -1.70105653405142      -0.75914375767832
C        -2.81087287522540      -1.46717216373330       0.71065271668235
C        -0.76373178322752       1.14382114859553      -0.63780775233676
C         1.69347067939787      -0.54096392072562      -0.15132008049179
C        -0.40184459351331       2.30778995932391       0.31548453302641
C         2.89718464636254      -1.09161359146678       0.62211973071509
C        -0.48802393293273       3.64996592810400      -0.40620481305727
C         4.16644331826647      -1.05905895245714      -0.22289217431890
H        -1.07398058084495      -0.87462382907773      -2.04847816220808
H        -0.52960634396901      -2.13920423547075      -0.91780073735160
H        -1.65097100861736      -0.23249218142499       2.05899510647050
H        -2.65698620628474       0.64620014929818       0.87895088582344
H         0.32108637961253      -1.58514278334230       1.17428297259722
H         0.59478247203899       0.10992884939688       1.60199920845005
H        -3.31110290645235      -1.07245591425389      -1.34523296149773
H        -2.74523143540045      -2.77113547361253      -1.02725516609602
H        -2.41616413185528      -2.33056678186704       1.29109728797237
H        -3.88462205326556      -1.31128895977743       0.95456886880300
H        -0.02256986893286       1.12770783436097      -1.46728712554940
H        -1.74073459210680       1.37721451047290      -1.12234979824766
H         1.54465175666863      -1.14934815892124      -1.06800695715748
H         1.92488171840265       0.50034872961927      -0.45857162217530
H        -1.08700847846689       2.33331029371011       1.18802517443256
H         0.63538179051023       2.19443137047021       0.69210290344246
H         3.06163934093140      -0.48421638316207       1.53892831594411
H         2.69802634176142      -2.14194425986524       0.92723167054404
H         0.22115567773443       3.67327188852132      -1.26106980886950
H        -1.51936073371164       3.82329907551351      -0.78041029382603
H        -0.22365006957892       4.46848592314646       0.29618375878876
H         5.00790777604541      -1.47745474395360       0.36760438641329
H         4.03825263344119      -1.67168753016632      -1.14040125519900
H         4.41522109252097      -0.01473100244423      -0.50892697574602
S         9.68969340573802      -1.94976242862383      -0.45757702321880
O         9.69379910615490      -2.48669388717572       0.98140232577183
O         9.26868410524028      -3.17225549732954      -1.28656926983419
O        11.18383186004165      -1.80410343551300      -0.78164238974164
C         8.69481205427773      -0.45840747173731      -0.72186967308847
F         9.17505052800038       0.56312461255277       0.07439654307275
F         7.38097352046595      -0.72005945994068      -0.39111180832293
F         8.76932962235929      -0.08384076659873      -2.04940606005122
