37
C9H20F6NP optimized with ForceField in AMS.
N        -0.06119602180303       0.25235404613025       0.16152444693701
C        -0.98228089021410       1.24256198757958      -0.48296002185566
C        -0.50361913222644      -1.14311240610084      -0.14544060609762
C         1.30202534097308       0.49040117225408      -0.42150094230141
C        -2.47492735469216       1.01400652640381      -0.17584671197540
C        -1.98075912277951      -1.41103780373129       0.18823946483681
C        -2.88828362917189      -0.41213795410833      -0.51763995995237
C        -0.01903853950025       0.48564372575746       1.63141183969142
C         2.43418422603626      -0.40703608704965       0.13669290809387
C         3.76346648774461      -0.09989553346209      -0.54578933113227
H        -0.87115651481790       1.20779047327961      -1.59197085670892
H        -0.71910078056138       2.28002129404673      -0.17216049126352
H         0.09411372516515      -1.88410322549482       0.42776606797246
H        -0.35054003504993      -1.36577713525298      -1.22665813292339
H         1.60174187567705       1.55304489238305      -0.26181916208663
H         1.27130028227616       0.34104029992889      -1.52614616686614
H        -3.08119331395751       1.71646612293848      -0.78743050646518
H        -2.70616784488083       1.23660577914308       0.88615974693551
H        -2.14577726629452      -1.37002689117388       1.28539596137313
H        -2.24741385094995      -2.43579523524283      -0.14820137418710
H        -3.93950274687160      -0.57946985141617      -0.20020521943079
H        -2.82912682292612      -0.56481108303732      -1.61790787031671
H         0.54564102639964      -0.31353336814457       2.15646968430415
H         0.45272842591663       1.46554328048673       1.86871971497650
H        -1.02746260103673       0.48857098224704       2.08776923738398
H         2.57093494915255      -0.23772149036403       1.22405812263280
H         2.21260356742950      -1.47862180215220      -0.03856551031077
H         3.68765975100074      -0.27243340730481      -1.64033951222399
H         4.06329473961385       0.95302509657324      -0.35760413727014
H         4.54650868415442      -0.77151403593151      -0.13653687408773
P         8.26207314518506       1.15435839911418      -0.06359551318390
F         8.01836278918045       0.84629154102833       1.60914851486191
F         9.36296050246209      -0.16105594809227      -0.16083030063166
F         7.00904911736231       0.05447485625454      -0.47191176933576
F         8.44614973109632       1.51062608630973      -1.73422133853640
F         7.13745196678900       2.44653882053136       0.07104448778081
F         9.58735658551892       2.19093432656940       0.28428377416311
