34
C10H18F3NO2 optimized with ADF in AMS.
N         1.21257317539199      -0.26511954064867      -0.09685153213191
C         0.91168073488046       1.02049062772833      -0.86180722089434
C         0.06317146692407      -1.23145421876290      -0.24147971412184
C        -0.41586489280213       1.63944226844521      -0.46815295026263
C        -1.28156921412694      -0.63043739613432       0.14183419604447
C         2.48253955124549      -0.84812796528874      -0.71811376724091
C        -1.56727081016399       0.65032638916121      -0.64150586900672
C         1.48130554870786       0.06736379754255       1.34178438671104
C         2.94900131977905      -2.15872406013695      -0.12078903971230
H         0.90439730239384       0.73346979020178      -1.92532005337538
H         1.78653708363457       1.66907353705726      -0.67823642761288
H         0.29900681163306      -2.11241647427455       0.37129434529525
H         0.06055184025321      -1.53251977608714      -1.30232884150084
H        -0.55700401112140       2.52545082055028      -1.10889901191335
H        -0.37985484806849       2.01898169639872       0.56726049946582
H        -1.31775894428000      -0.43406661580248       1.22708884219496
H        -2.04954980164655      -1.39574596382510      -0.05985617647550
H         2.25888222304084      -0.95495363596020      -1.79029096861692
H         3.22837073698349      -0.04066377899991      -0.58694436314798
H        -2.52135827473701       1.09320712026128      -0.31529323691599
H        -1.67632569831899       0.40409641003928      -1.71393853372906
H         0.60144066128940       0.55586645722526       1.77183546038194
H         1.68169313912957      -0.86356105465868       1.88491730648619
H         2.35014466632504       0.74331752210187       1.35976543239836
H         3.88628843933043      -2.42508667330964      -0.63314165662849
H         3.19254364623282      -2.07308727107895       0.94746522359822
H         2.24544782567667      -2.99097560969495      -0.26969884123467
C         4.51625809911384       2.42482703531809      -0.66372046959073
O         3.68619371805757       1.75552450681597       0.03413121282870
O         5.19680668815093       3.41711772934714      -0.39648764451758
C         4.67015573563593       1.84758505136555      -2.12261432260416
F         3.44753656009478       1.77486709234891      -2.77898332069653
F         5.15699010517879       0.55224733466372      -2.11002089425657
F         5.49163016858182       2.56598147589076      -2.92369765221766
