24
C6H11BF4N2 optimized with ADF in AMS.
N        -0.46015315372532       0.11527220991162      -0.26236025612664
N         1.66169486212690      -0.15525172099649       0.09893120827712
C        -1.87219132119513      -0.19927588735547      -0.53168115342844
C         0.55539422328744      -0.75089970535286      -0.35768047240121
C         0.00630617728585       1.28392452688286       0.30163131385165
C         1.33956032628283       1.11536384815293       0.52595889295489
C        -2.59520402222780      -0.67718738857818       0.71739126598348
C         2.97899175257133      -0.77596868631437       0.18558089193324
H        -2.31913180341308       0.71488363528181      -0.95269965382978
H        -1.88153846979031      -0.96556546031635      -1.32112326197473
H         0.47672543006405      -1.78729626327284      -0.65775278662563
H        -0.65065706720762       2.11634123339419       0.51996440757512
H         2.07288714522328       1.77002208403293       0.97868547156071
H        -2.14955064250562      -1.61447773800563       1.07816230211926
H        -3.65681342844185      -0.83502848203390       0.47424438105428
H        -2.51517768958802       0.06295766144624       1.52619230735390
H         2.87034532282364      -1.84715376288567      -0.01128760988775
H         3.65372854481244      -0.30820734267935      -0.54458276901943
H         3.34518067589513      -0.66370885480690       1.21184888748233
B         0.37331085701301      -2.14823030080743       2.49767615068217
F        -0.09244982145342      -2.83619792175040       3.61868247546191
F        -0.15612880289617      -2.76095266252859       1.28957661297725
F         1.79715428439064      -2.17831127298995       2.40881668519225
F        -0.05486202203221      -0.78361729732820       2.51952938423405
