36
C8H20F6NP optimized with ForceField in AMS.
N         0.00203185625858      -0.00191262828819       0.00074510907810
C        -0.84836744980574      -0.25793545593108       1.21603487928395
C        -0.84362774570530       0.25602456392143      -1.21710783076147
C         0.84911479382842      -1.21931297793052      -0.25580081403601
C         0.85079960906211       1.21416701232450       0.25908550474236
C        -1.90720259437200      -1.36953228984573       1.07465817855254
C        -1.89677613039528       1.37227634537878      -1.07957329671476
C         1.90756729870883      -1.07955808950562      -1.36809533688811
C         1.90847716189167       1.07289046559444       1.37133707274920
H        -0.21364070783549      -0.55440302374273       2.07859957089668
H        -1.36980065899309       0.67010415281086       1.53810639195473
H        -0.20569522761584       0.54963009304800      -2.07804145041252
H        -1.36772680824426      -0.66997471189458      -1.54091089906047
H         1.36931300964877      -1.54375756063308       0.67201758078704
H         0.21232812843407      -2.08015280215935      -0.55263430423980
H         1.37143373861386       1.53934072999954      -0.66828424759627
H         0.21558760813583       2.07544498418744       0.55758229022822
H        -2.47036898137538      -1.44695599500677       2.02893241781584
H        -2.64588699898061      -1.14923947351729       0.27934605869798
H        -1.44240975801868      -2.35903730559612       0.89337850788122
H        -2.43984564761276       1.46255360955626      -2.04278285517793
H        -2.64886094491092       1.14747487058897      -0.29789949828560
H        -1.43097631155645       2.35796829284534      -0.88265059713055
H         2.47021498003271      -2.03402876463479      -1.44531296271860
H         1.44236081676118      -0.89890466370172      -2.35754137333973
H         2.64639599926096      -0.28402231382927      -1.14925471391272
H         2.47114182241314       2.02743383296579       1.44901860441920
H         1.44225448489958       0.89168396409201       2.36019574558973
H         2.64735738063439       0.27765875466628       1.15188341311097
P        -5.38118631513154       0.43073551287230      -4.14546107357140
F        -5.41990627489671       1.84841073468449      -5.11511433410364
F        -4.91516476410015       1.38514131542785      -2.79640994110729
F        -7.01863042316162       0.67370586604541      -3.68669555617488
F        -5.30448688043709      -0.98454800640952      -3.17446215374539
F        -5.92701704165658      -0.49769880668022      -5.48409912067939
F        -3.73828461977861       0.18988646949690      -4.58783148283122
