43
C13H27NO2 optimized with ForceField in AMS.
N        -0.23725523342293       0.29941190996698      -0.16706007736837
C        -0.93610345810146       1.28539039490014       0.72185250069951
C        -1.13405757746089      -0.01992428999698      -1.32567240121102
C         0.11647586851641      -0.93114289272057       0.62475884282678
C         0.98715494405715       0.95740864671135      -0.74064418790106
C        -2.34190974695010       0.84069315558336       1.17376392285040
C        -2.52526259982818      -0.53392792125218      -0.91844128927860
C        -3.22308792976492       0.48131697002920      -0.01908256800576
C         0.92194232313745      -2.01099623971999      -0.13929640481799
C         2.10492607262883       1.30140709491332       0.27537120720970
C         1.24918031984061      -3.19143841772152       0.77232803123609
C         3.25552969929823       2.03154210591610      -0.41253505486513
H        -0.34898169775648       1.47709417420553       1.64509772827954
H        -1.04835234874690       2.26597156757761       0.20360095407600
H        -1.29784116825751       0.89401353738654      -1.94405161446815
H        -0.66710191797425      -0.75342712227214      -2.01487185890375
H         0.68583757287161      -0.64772097669473       1.53718235273707
H        -0.79359039167886      -1.42591326728783       1.01578349221561
H         1.43014806163698       0.32372748538457      -1.54121528216036
H         0.70096020999378       1.90382663362026      -1.25614603907795
H        -2.27999357655499      -0.01605507478867       1.87647502785402
H        -2.81927307731764       1.67535972317056       1.73155421448877
H        -3.13724242254583      -0.68050175433575      -1.83457008372825
H        -2.46125709168155      -1.52166311425160      -0.41726910888907
H        -4.18549300311380       0.05971732386607       0.34255695996613
H        -3.44903560805692       1.40071313260715      -0.60319762192356
H         0.33881627113891      -2.40474123687839      -0.99572887335822
H         1.88195126385289      -1.60561382452500      -0.51656412065492
H         1.72420439963873       1.95972580483121       1.08145533950134
H         2.51957201351610       0.38060638769508       0.73385960573961
H         1.82084825656127      -3.95455111733993       0.20263688692591
H         0.31477259861786      -3.65881629647530       1.14989852474427
H         1.86638088044100      -2.85635162796025       1.63308836551935
H         4.06157591191185       2.23531777366965       0.32388309385623
H         2.90358534090489       2.99941509298621      -0.82897001786318
H         3.67220343964450       1.40929798766664      -1.23291589881085
C         8.30707802498757       2.72142805334023      -2.29799750572647
C         7.10293679110402       1.83566249714216      -2.35541104047018
O         6.68024328059824       1.45080841734697      -3.43362480344871
O         6.54095617020888       1.49337051345376      -1.32742582880446
H         9.17821168077751       2.19472513304981      -2.74156260683479
H         8.11277152064513       3.65269024516633      -2.87073140560902
H         8.54721987048279       2.99012621133401      -1.24672391754650
