46
C12H26F6NP optimized with ADF in AMS.
N         1.29395528446757      -1.06177241308183      -0.46050363030731
C         2.21268757766917      -1.12969510362575      -1.68395851147251
C         1.82293975073082      -2.16667936197820       0.43926500702066
C         1.43628964582517       0.28379139823792       0.25099978129890
C        -0.13263035523865      -1.33061035263310      -0.86885831702338
C         3.53847155205346      -1.74882493726217      -1.21580853293558
C         3.33040031278685      -2.13572603721719       0.26148866030884
C         0.80961008441189       1.46004944182157      -0.47659880118418
C        -1.13403707865924      -1.30837601596394       0.27337033834058
C         1.00482703448916       2.74124656657125       0.34442937015058
C        -2.53572463133566      -1.66790848384633      -0.22753737448145
C         0.45559297814506       3.96682348398318      -0.38145616101575
C        -3.56870921295139      -1.65407911137908       0.89662911885250
H         2.33244572026266      -0.11501019265664      -2.07915602815076
H         1.69532047602178      -1.75973231852700      -2.42093603913591
H         1.39137070456170      -3.10601961877931       0.05719732656897
H         1.47389804756941      -1.99311766501387       1.46449122121712
H         0.97600834558812       0.14657430758049       1.24128052287571
H         2.51550190472890       0.45177295398141       0.38043043183086
H        -0.38859395029692      -0.58352969012041      -1.63432383053375
H        -0.12493105614441      -2.31982613875977      -1.35377578910695
H         3.76772052546215      -2.63155650853186      -1.83115521573706
H         4.36295229426939      -1.03036940700221      -1.31742820537662
H         3.79535668820030      -1.38599247225351       0.91583296808557
H         3.76536453435518      -3.11566155019037       0.50658074238339
H         1.29374363074075       1.60364738377204      -1.45644363274276
H        -0.27119990920585       1.30622146404806      -0.64452910555653
H        -0.83701687928273      -2.02713331239694       1.05727237461197
H        -1.16452594347379      -0.30970712983259       0.74016138934925
H         2.08072411811401       2.87863086057612       0.53716126716621
H         0.50177965935867       2.62658910738727       1.32262697164485
H        -2.83344413902114      -0.95553267463361      -1.01783699270661
H        -2.50976800766145      -2.66692643986691      -0.69910396207846
H        -0.61855492009764       3.86002525020244      -0.60616003972344
H         0.99175850610166       4.12552363692613      -1.33020501860462
H         0.58445496156294       4.87403222944336       0.22801042959606
H        -3.63415526993838      -0.65747643535299       1.36058217781971
H        -3.30475551801389      -2.37642632228267       1.68493269432247
H        -4.56910708370611      -1.91653155362145       0.52168672364512
P         5.15108005591286       1.85508083797095      -0.51990849951707
F         4.58693824452401       0.73720020773842       0.61672100564900
F         6.49296427286968       2.08918735240666       0.37967992185402
F         5.87972994483537       0.60861464405302      -1.33477795156748
F         5.64331461042328       2.92637682422115      -1.65064039360139
F         3.74689785383995       1.56464926562305      -1.41493510144377
F         4.34690404074533       3.04121958336528       0.30366630561101
