46
C14H12F18NP optimized with ForceField in AMS.
N        -0.48192886320427      -0.00148175409215      -0.39592779213172
C         0.94419366918992       0.00596222663793      -0.74515564686894
C         1.79741606055581       0.05034302105897       0.52528789587445
C         3.28650156026308       0.00687490275091       0.19801141993499
C        -1.14672947263475       1.18297129516244      -0.23103975705084
C        -1.13174643171862      -1.19239895722438      -0.21747759344629
C        -2.50107345494239       1.19410106229005       0.11243144919995
C        -2.48588741806695      -1.21679463993234       0.12611070056979
C        -3.17219004712776      -0.01463568450555       0.29002112123436
H         1.19863548989155      -0.90132307364171      -1.33802002749469
H         1.17828539629162       0.88492696540577      -1.38671571105197
H         1.54414611462415      -0.81756285950984       1.16795346421064
H         1.57537088695299       0.98056076346723       1.09168983367674
H         3.53312878331314      -0.92316217114876      -0.35737221464400
H         3.87402920147389       0.02276051055089       1.14013444874632
H         3.57164625519762       0.88833869897933      -0.41475418540664
H        -0.63072238055047       2.12688425196525      -0.36097099590841
H        -0.60392256093094      -2.13149388074166      -0.33522678013725
H        -3.02385848887237       2.13295531329297       0.24129967250848
H        -2.99685382378004      -2.16059899247631       0.26558684270429
H        -4.22128896273089      -0.01967410672607       0.55668547657609
P         1.57080120963610      -4.33960810258329       4.90468039329830
F         2.96449763192337      -3.34621613937792       4.71784014721004
F         0.12515529980101      -3.49641877669368       4.49088821957241
F         2.86765264426338      -5.45802616481778       5.06599118630270
C         1.69042498362376      -4.23101384001254       2.97237047396728
C         1.66299671472717      -3.22255367591586       6.48369977441761
C         0.65360801604113      -5.91506006458110       5.54573399344268
C         2.99477569879443      -4.74161516617944       2.30186689379550
C         0.48472385410687      -3.30864091358124       7.47672302551610
C         0.45821424209193      -7.07015172080002       4.54445194776342
F         1.55268870750872      -2.90378469446325       2.59054497841874
F         0.63786556234669      -4.91794853459962       2.40166644033859
F         1.73894037985793      -1.88457000762051       6.10622561200201
F         2.81426481823293      -3.54049008465913       7.19086506936691
F        -0.61761413127950      -5.55217041108491       5.95186412359739
F         1.31193435948329      -6.42250045307905       6.65749287667975
F         2.82821895272048      -4.70955278708563       0.92858793943690
F         3.29404177906325      -6.03945576815087       2.65591954713900
F         4.07449109295597      -3.93304232326782       2.60821949987897
F         0.64205297515856      -2.32531489906424       8.43825397926406
F        -0.72655992735832      -3.09070246138600       6.84795915034334
F         0.46144309289238      -4.52341394889897       8.13211268877887
F        -0.49801554125234      -6.74555157414595       3.60133723840446
F         0.00157037066776      -8.18238154525173       5.22944192475576
F         1.63350385149877      -7.41824082316241       3.91669494151383
