67
C19H28F18NP optimized with ADF in AMS.
N        -2.55238597817986      -0.76633971076069      -0.48184535719505
C        -3.46715132366858      -0.01356030371196      -1.44222072804825
C        -3.40252941982484      -1.64283291815918       0.43042314609323
C        -1.66661822172633      -1.66176168837675      -1.33825954634190
C        -1.73149708740570       0.18049230171908       0.36762476211568
C        -4.55630729906056       0.77622319173434      -0.74165911103340
C        -4.50928554321886      -0.87812006059356       1.13885196495651
C        -5.40002683351848      -0.14018200088067       0.14253781467976
C        -0.61600238741852      -2.46770202926772      -0.59761479215349
C        -0.78002980201532       1.07499431837531      -0.40135243160292
C         0.08457102642207      -3.40347112523634      -1.58889681705133
C         1.15368232349985      -4.27095596005080      -0.93049208677404
C         1.83956051517326      -5.20996170701640      -1.92173671392463
C         2.89352662028853      -6.09664428410424      -1.26410258451055
H        -3.91316830303508      -0.78461897553421      -2.08215572580105
H        -2.81855611912700       0.61412442256252      -2.06819608219522
H        -2.71323952334891      -2.11228120243682       1.14466472708938
H        -3.83157177412863      -2.41678251911540      -0.21941210881748
H        -1.20450778944222      -1.00766514239714      -2.09225174267525
H        -2.36239284695127      -2.32523500175054      -1.86706197161320
H        -2.44713751766019       0.78341895535441       0.93945605553951
H        -1.18591528823154      -0.45286825587890       1.08172688021890
H        -5.17761249570685       1.22153760474707      -1.53644704412548
H        -4.13974385237314       1.61754604816244      -0.15921473611174
H        -4.09519958100658      -0.18155540393663       1.88877777220998
H        -5.09280924743158      -1.62677165293731       1.70065070025764
H        -6.17508379624988       0.43621545623606       0.67195981809654
H        -5.91569572240359      -0.87454158344498      -0.49759251819285
H         0.13519824044125      -1.81573323080622      -0.11833510038977
H        -1.07855810830792      -3.08147414316802       0.19323393128595
H        -0.02108896739733       0.50605678056030      -0.95542776912552
H        -1.30265256527179       1.74446143326536      -1.09810108709991
H        -0.25086729807577       1.71119203104842       0.32492268271201
H         0.54010078963083      -2.80645730667706      -2.40057926023782
H        -0.67125626317008      -4.04929828744240      -2.06784924904779
H         0.69157116360881      -4.86989314081835      -0.12269183027149
H         1.91390333306914      -3.62687668582379      -0.44794354533815
H         1.07247103616528      -5.83841903780704      -2.40937478845508
H         2.30409334219378      -4.60944219084050      -2.72534216597272
H         2.44282674941161      -6.72861602423707      -0.48182877063756
H         3.37463609110005      -6.76178208118676      -1.99702489231323
H         3.68237082284855      -5.48903113777937      -0.79160988994543
P        -5.14249986988471      -3.62658066194056      -3.61564377268510
F        -4.04503229699886      -4.85832160772105      -3.37786060375942
F        -4.46835256007463      -2.81797308888627      -2.26003830770292
F        -5.83337889761286      -4.35099626948056      -4.92947970045774
C        -3.78045765781373      -2.80125695575500      -4.81398612109814
C        -6.33148920240192      -4.68519032322102      -2.42572316492138
C        -6.36266265612820      -2.03286188479257      -3.73618022371533
C        -2.66844447665574      -3.73013726045491      -5.40610160657883
C        -6.02001033994031      -4.72833988014791      -0.89693521518284
C        -7.50428096088204      -1.95463147345450      -4.79808757756633
F        -3.05717900792752      -1.78409398257939      -4.19048477829350
F        -4.38736524982729      -2.23758207544298      -5.90669391448495
F        -6.26687606000099      -5.99677519397456      -2.83868930025658
F        -7.65731433058965      -4.32578162035727      -2.50872496982381
F        -5.60133927821607      -0.88886560510205      -3.94139506495914
F        -6.98120786023695      -1.83399770124652      -2.51559759226374
F        -1.97004343272801      -3.03370705463479      -6.35187592366084
F        -3.17583487282792      -4.82828455002416      -5.99432899057120
F        -1.76726630151951      -4.10614016474841      -4.45809477674636
F        -6.81745270527026      -5.64818027000501      -0.29270598038586
F        -4.73254872374381      -5.06929451215959      -0.63588280175989
F        -6.26363859819376      -3.53023628820781      -0.29151350760086
F        -7.02155537479771      -1.94460532108779      -6.05794797731765
F        -8.19510886105119      -0.78818740000167      -4.61125722027633
F        -8.37976690947296      -2.97280595246214      -4.67909728678403
