28
C6H11F2N3O4S2 optimized with DFTB in AMS.
N        -1.36332604595729       0.45974834612282      -0.59589328575286
N        -0.06229979475819       0.62532589965776       1.10932645353838
C        -2.30762266612767      -0.09738156203707      -1.56151291206110
C        -0.74197155401858      -0.23356852558130       0.35510348366215
C        -1.10291733254874       1.79199379392307      -0.42275659823430
C        -0.27969598315593       1.89603765590202       0.65315350419162
C        -3.71724241658439      -0.07360561583943      -0.98150461689483
C         0.68076092006620       0.28236748193585       2.31078227597855
H        -2.24445260986692       0.49992160007241      -2.47521187297499
H        -1.99362913771693      -1.12106977072342      -1.78317995592511
H        -0.78958504714281      -1.29904778563825       0.49756480249619
H        -1.52118195871900       2.54474575331767      -1.06741622324116
H         0.15396672147114       2.75633374858557       1.13178987583122
H        -4.41180663340628      -0.47327779006290      -1.71847026580922
H        -4.00673108574499       0.94506041087003      -0.72994668040642
H        -3.76755279221106      -0.68075624121065      -0.07990457458166
H         0.52721984986790      -0.77348745539946       2.52317042769030
H         1.73973396846803       0.49112643299820       2.15749284314067
H         0.29456390542584       0.87959817827856       3.13687369222917
N        -4.08290656472111       0.14428169345781       3.74231223389318
S        -5.09409171368861      -0.92599004199199       3.09371572876987
S        -2.70542239588902       0.29189821455607       3.02091734116374
F        -4.40547146477119      -2.33999440675301       3.45807481485709
F        -3.03811808482654       1.12119708553282       1.62078538018118
O        -6.29698029022429      -0.89562227524978       3.84847863482365
O        -5.16205306821684      -0.92585558340673       1.66481133923686
O        -2.06482801376312      -0.89906623390618       2.51649497013805
O        -1.88376950293959       1.21952871038949       3.73995703485978
