46
C12H14F18NP optimized with ADF in AMS.
N         0.52311717424317       0.33624753323547      -0.28828245881496
C        -0.72517481319657       1.18232948610134      -0.48036222679159
C         0.08299597935346      -0.63965001396879       0.77946498767286
C        -1.87505756571512       0.18067490664851      -0.43881398218644
C        -1.34806777287827      -1.01982486839894       0.39448048394755
C         1.69404859285577       1.16235081486418       0.13446521008080
C         0.86276138425817      -0.39349361179977      -1.55611297459081
H        -0.62977892458690       1.75338435411187      -1.40821602851608
H        -0.75156643292021       1.87323189708320       0.37573920594572
H         0.11107497260823      -0.08737735011649       1.73068088776061
H         0.79323406334479      -1.47668969298720       0.82264080397176
H        -2.15413251735386      -0.13028340127714      -1.45570358086715
H        -2.76298783145919       0.64424731061323       0.01291856065381
H        -1.94614758270497      -1.19753264888807       1.29935208433350
H        -1.36646669281652      -1.94719819869091      -0.19536620265247
H         1.91385975965751       1.87816006073751      -0.66623799261718
H         1.43780722774521       1.68352041595922       1.06517726212906
H         2.55252513792656       0.49710947518566       0.29169641525763
H        -0.00114958137453      -0.98933043326376      -1.86787452174818
H         1.10958095608716       0.33756744264160      -2.33472751542680
H         1.72113367064730      -1.04648233262715      -1.35350413668052
P         1.29423379022202       2.89865658190946      -4.08974518823989
F         1.44445920608171       1.21797875453170      -4.16795991213814
F         0.94579047879888       2.85057129563832      -2.41677469102950
F         1.64900360224136       2.97891077756056      -5.69669748476120
C         3.19994878530010       2.80933395251655      -3.55647937880268
C        -0.68735546983562       2.49724055754319      -4.40375421315635
C         0.98365008060065       4.88207103558848      -4.13304010926930
C         4.26760524414843       2.44609852439373      -4.63329079774760
C        -1.92150673988127       3.31896890241726      -3.89212011928441
C         2.07575637811999       5.99851096912987      -4.17305536583908
F         3.34526462227664       1.81751040183017      -2.58335639086655
F         3.63590945548339       3.96249458507804      -2.95307157611094
F        -0.93851301835312       1.26257985016558      -3.78316726925692
F        -0.90205672533461       2.31351402502062      -5.74283424831214
F         0.16300390825670       5.24636377756872      -3.08424010500905
F         0.27523049808730       5.07917563908192      -5.30017865278257
F         5.49030259185882       2.35134731964011      -4.02810045026953
F         4.36000481445308       3.38740633310369      -5.59377914680457
F         4.00426498436000       1.25399937674450      -5.21316510055977
F        -3.05481264495652       2.59189108799114      -4.13427282732937
F        -1.85990881682400       3.50954096198632      -2.54284011109104
F        -2.08503391628650       4.50802588818137      -4.49144583552043
F         2.59256216788525       6.25072945801895      -2.94733352164332
F         1.50475217748165       7.15887672889436      -4.60226757994474
F         3.07185220219449       5.68760509050182      -5.02944308739204
