37
C9H17F2N3O4S2 optimized with ADF in AMS.
N         0.26676816960004       0.14901800542990       1.37525728639340
N        -1.48990018580060       0.27110749504780       0.10672122504908
C         1.42113555112295      -0.38622223241124       2.10716722224420
C        -2.64389426030713      -0.10518809069013      -0.72419632736933
C        -0.58966144521044      -0.56740371445326       0.63656662482456
C         2.72539998015723      -0.15277039146356       1.34914180581868
C        -3.86174157522248      -0.50658940772291       0.10398391249427
C        -0.10695266630630       1.47442323165524       1.33192797737223
C        -1.21614520024296       1.55024605382969       0.54363828904371
C         2.77627650862420      -0.85438900969172      -0.00468631213323
C        -3.74310687834232      -1.89698246262027       0.71599489763135
H         1.22188567479933      -1.45525341300206       2.26974868326110
H         1.41877278426174       0.09398375853187       3.09707804312041
H        -2.31554989601110      -0.92441029474580      -1.38378833147508
H        -2.85471019332663       0.76898909115267      -1.35814665714054
H        -0.57720926995298      -1.64322849036588       0.52533797097906
H         2.88468055109085       0.93219032645340       1.21982163433573
H         3.54122242303386      -0.51286673723304       1.99867121612539
H        -4.01889306785975       0.25126918277705       0.88983743345964
H        -4.73263412309360      -0.46197127159861      -0.57394064069938
H         0.40342760040305       2.23305177692710       1.91092223591008
H        -1.86691489070471       2.38354673888054       0.31172532964519
H         1.98421681680610      -0.48802793809066      -0.67715685033197
H         2.65677552607689      -1.94428318876423       0.10651244873227
H         3.73979651468038      -0.67280470257588      -0.50435161924473
H        -2.90096325810646      -1.96263610876773       1.41902058405481
H        -3.62491600971038      -2.66522861173481      -0.06726459665602
H        -4.64973748072721      -2.13984090494348       1.29022926212579
N        -2.26154868751979      -0.07411158536152       3.14228265082162
S        -2.80761927076070       1.31858145611216       3.73340072773467
S        -1.47356791484745      -1.12467288105134       4.06657133771473
F        -1.40943526065913       2.20784242364436       3.94754520706989
F        -2.62726018517187      -1.73355147735438       5.05727089695753
O        -3.47048445356578       2.00027160271116       2.63082248508768
O        -3.40076569497485       1.27749842280609       5.05161340210445
O        -0.47200177494595      -0.56501451129112       4.95670800678794
O        -1.11084119638604      -2.23910381002540       3.19688816655082
