31
C9H16F3NO2 optimized with DFTB in AMS.
N         0.73532256826711      -0.12170999603002       0.09215783833358
C        -0.47005414300101      -0.94686693729197      -0.21674598594648
C         0.20098610745407       0.96952268618756       0.97141758275616
C        -1.59439174013750       0.06684587515379      -0.41576497915620
C        -1.17781816683662       1.29790904470849       0.40692885473305
C         1.79024430562612      -0.88707209832788       0.83195745303158
C         1.30621981035051       0.47410406574248      -1.15017587524926
C         2.35485130843533      -2.05499882988035       0.04042085423503
H        -0.66567628044171      -1.58792004887733       0.64641831618602
H        -0.28454691043162      -1.56604345012506      -1.09445808289891
H         0.88931950140565       1.81722144161148       0.93334250783644
H         0.13220886709714       0.57766210696970       1.98820533280207
H        -2.54349769495842      -0.34844762811624      -0.07360639437198
H        -1.69544855192014       0.32359282230087      -1.47223453707093
H        -1.13408636646995       2.18757115513089      -0.22368098822810
H        -1.88032141695394       1.49128029767025       1.21901291539747
H         2.57515795565261      -0.16053925102336       1.06825858246735
H         1.33782299650856      -1.24568947391610       1.76016435761549
H         1.37421452025848      -0.28798461808212      -1.92340336687070
H         0.67125879344084       1.29095047431532      -1.48150359851828
H         2.29185608461380       0.86575785165316      -0.91046688531831
H         3.13834343076474      -2.51603672619789       0.64104110248397
H         1.59167672544544      -2.80570528951070      -0.16431633818920
H         2.79608976235551      -1.72732969414432      -0.89889519357764
C         3.07096724990085       2.78702793034864       0.40999492837992
O         3.47415382150360       1.66098717786997       0.72182935047052
O         1.99452994816270       3.12813031218139      -0.08845841307837
C         4.08605123204333       3.98286866698328       0.71496678867802
F         4.12235128153824       4.88325042585765      -0.27982555461014
F         5.34251490502000       3.55638769807728       0.90552984544858
F         3.72324696500635       4.64570827106109       1.83161441232926
