47
C13H26F3NO3S optimized with ForceField in AMS.
N        -1.89086502996334       0.13679354353327      -0.04747611302448
C        -2.09853378055787      -1.07331483182796      -0.90067607705196
C        -3.01774293241539       0.11520467214288       0.93601847367792
C        -0.58766637187398       0.03681670848651       0.68758694092382
C        -3.47617779821293      -1.63316827546614      -0.60394985569681
C        -3.72767965626664      -1.21993229786380       0.81833676169934
C        -1.97352118110444       1.36784897989934      -0.89918389869287
C         0.66694607404465       0.05862489391812      -0.21849783853600
C        -1.74030959816684       2.68699114468181      -0.13996179736940
C         1.93773781733827      -0.17245144593403       0.60833865877182
C         3.18437596399142      -0.19025944608431      -0.28370662066579
C         4.45567069831991      -0.36867396302014       0.55399582932902
C         5.69939887094575      -0.40586977117632      -0.32893280239406
H        -1.36802190809757      -1.88209415850118      -0.66838818805173
H        -2.00210127518805      -0.86571528385265      -1.99087043614620
H        -3.77696628863745       0.90322862629296       0.72538664334335
H        -2.68764358002399       0.27449926176466       1.98809044825104
H        -0.57149756507880      -0.90363276762769       1.28647821745419
H        -0.49564405003423       0.86025015383762       1.43007466810690
H        -3.50931464018923      -2.73859848694729      -0.72078653874390
H        -4.22903352648559      -1.16255285798716      -1.27458954520148
H        -4.81541164090712      -1.13240056817970       1.03285933951411
H        -3.26669192409097      -1.95586882321345       1.51399884494997
H        -1.24520553598457       1.32001114285334      -1.73786867517898
H        -2.97523710699010       1.42577709684730      -1.38417142366139
H         0.59788935705567      -0.72734115283054      -0.99767812604844
H         0.75920579179790       1.04261961652912      -0.72271840899939
H        -1.96931574007811       3.53950269613456      -0.81346134645760
H        -2.39340672412561       2.76906961623260       0.75235549529180
H        -0.68108284722350       2.78706105976892       0.17252140389497
H         1.85934128784571      -1.14418811173978       1.14397397185076
H         2.03447466169577       0.64056670469727       1.36158078884355
H         3.24906620725712       0.76477367595168      -0.85055001252571
H         3.10092431245358      -1.02714934037146      -1.01066425813613
H         4.55072552755156       0.47461967506858       1.27258469870428
H         4.39568134607127      -1.31755630993018       1.13065140889659
H         5.79070450714277       0.53794190512382      -0.90781928668192
H         6.60279965851888      -0.52053524927634       0.30658265675022
H         5.64798718149519      -1.26475371168782      -1.03166452809942
S         0.97798886606136      -3.82797795292382      -2.96511915368612
O         0.31530274016096      -2.44641411063654      -3.05914982846910
O         0.03239850126328      -4.72137229164376      -3.78120082453331
O         0.69639157098989      -4.25370008107941      -1.51666702765312
C         2.72090804377401      -3.88655722312547      -3.46969630541768
F         3.47806177611072      -3.11274897270754      -2.61237153324277
F         2.84516387656023      -3.40049992112708      -4.75677794250684
F         3.17096622075045      -5.19182759250282      -3.42666395638103
