28
C8H14F3NO2 optimized with ADF in AMS.
N         0.65312868158353       0.41225251353728      -0.27467732281736
C        -0.73165213151145       0.71967253838776      -0.78663683544456
C         0.52449118912069      -1.02094102009575       0.22108015700801
C        -1.67359784602581       0.10080690050560       0.24113023067234
C        -0.88002643222402      -1.09904506384695       0.82927075561693
C         1.01935304874925       1.30030801020433       0.88046457442732
C         1.70241802199897       0.52359849506734      -1.33616842453707
H        -0.81556770501882       0.21202547409886      -1.75917402349220
H        -0.83555922150788       1.80396219654837      -0.93179932174231
H         1.36901331320553      -1.20191620854621       0.90635885838975
H         0.63310039518306      -1.66067320345082      -0.66620706412788
H        -2.61459724916947      -0.20645947693163      -0.23649574787904
H        -1.93143043526058       0.82819969779070       1.02472222207492
H        -0.84099311355386      -1.04332542931256       1.92651350449805
H        -1.34766092758467      -2.05918677070102       0.57001959369304
H         1.11040983307534       2.32868119196037       0.50795804889706
H         0.22984721396365       1.24078277329899       1.63903206014950
H         1.97035166195843       0.91015649069769       1.29093821184563
H         1.34267290710509      -0.00792127103943      -2.22697392810053
H         1.85554434285955       1.58628808621505      -1.56466270045768
H         2.62031227303453       0.02498464091144      -0.95142332297373
C         3.98914304633126      -1.10751390091812       0.95991040388303
O         3.82058057401863      -1.26154732487002      -0.27429149116644
O         3.24314371189612      -0.57015140067597       1.82214114402793
C         5.31654907571915      -1.72488980187942       1.51154010238763
F         6.33627250807319      -1.66555707750763       0.60609017371931
F         5.12504668893551      -3.05397481822329       1.81329114745607
F         5.76167335464509      -1.11821484642494       2.65039776949231
