40
C12H26ClN optimized with ADF in AMS.
N        -1.89044468325904       0.04386540633764       0.15354897566008
C        -2.12330440125787      -1.05990672437940      -0.86949908776427
C        -2.98240688829900      -0.19662630169554       1.16994037501353
C        -0.53369959532057      -0.08544998888204       0.79985069767833
C        -3.64015700941780      -1.15094447998719      -0.98850101274453
C        -4.20742361215111      -0.62435586350876       0.35785403340955
C        -2.07411414203312       1.39476544133543      -0.52913723510578
C         0.63374873495793       0.08042359859480      -0.15025204687241
C        -1.72357818007229       2.58128284759028       0.34224323532174
C         1.95388160598113      -0.13503947727494       0.58502277726225
C         3.15462515789906       0.02086742901028      -0.34569626260655
C         4.48948949167801      -0.19464053876861       0.36079286526229
C         5.68342423376259      -0.03377433761827      -0.57662051085812
H        -1.69128035214517      -1.97167946416695      -0.42814525940010
H        -1.59493040827255      -0.77340199389659      -1.81447940665910
H        -3.12210415223944       0.70699986462144       1.77705607647447
H        -2.62562931573863      -1.00998497435976       1.81908059138440
H        -0.52381396138608      -1.08971042970785       1.25522832613279
H        -0.50077522210676       0.65087278494483       1.61873146924502
H        -3.94304350866640      -2.18805948049007      -1.18931119025571
H        -3.99078423653570      -0.54106456110960      -1.83431499566458
H        -4.89423293143045       0.21972094721722       0.19879817268138
H        -4.76569234689206      -1.39622054566068       0.90728142000438
H        -1.46888157839526       1.34096651668196      -1.46791528595782
H        -3.13100497906628       1.42948610351210      -0.82902776811200
H         0.54352935989636      -0.61348378056696      -1.00186348624499
H         0.62115492428725       1.07519168081965      -0.62209575296173
H        -1.99748283123092       3.49035129835249      -0.21440587899895
H        -2.26878520547598       2.60943261317373       1.29891060100115
H        -0.64569088675067       2.64410820101836       0.54761663593298
H         1.97254700621352      -1.14505160531705       1.03810187924388
H         2.04443674330887       0.58341718637205       1.42259516529285
H         3.13284581676744       1.02792371879923      -0.80102522086968
H         3.05630148480779      -0.69007214789001      -1.18594630359668
H         4.57728746982319       0.51954855743248       1.20046421192007
H         4.50419587001987      -1.20463525511238       0.81096969713835
H         5.70292870482897       0.97643638631161      -1.01681449952228
H         6.63647406751659      -0.19301566474931      -0.04899915921414
H         5.62922584330392      -0.75548021848803      -1.40755881039846
Cl       -0.56513051530930       0.46672256470440      -3.29371996785164
