26
C8H15ClN2 optimized with ForceField in AMS.
H         0.48328493679362      -0.41742923508589      -4.92630606466678
H        -1.18028337824096      -0.62994021269316      -4.25255461389726
H        -0.01502773146041      -2.01065051352413      -4.22372305382275
C        -0.11157449399374      -0.90847443308455      -4.12779759445251
H         2.50646301823961      -0.12698273799167      -0.38226398552594
H         2.41919641884973      -1.18399139664555      -2.84203340127806
H        -1.34815630593897       0.47839805125482      -1.96451605805246
N         0.37663701143353      -0.48455756682440      -2.82154056772670
C        -0.31329703095504       0.17385784734699      -1.87015309168832
N         0.44805994974554       0.39362324345332      -0.78068153426893
C         1.65705754853074      -0.13873973631441      -1.05323202698429
C         1.61258878749715      -0.68278679903008      -2.32231248881927
C         0.04555008915173       1.07450633315370       0.44705602994175
H         0.84775096678748       1.77857083894117       0.75741677743411
H        -0.87812469889068       1.66658719063499       0.26119445093951
C        -0.21979367401730       0.05271914315436       1.55604701426935
H         0.70524006622221      -0.53551383149871       1.74496738393795
H        -1.01857164848425      -0.64493758304662       1.21978755448900
C        -0.65807727643164       0.74626354380595       2.85052643457745
H         0.14227686844892       1.43722468254896       3.19468204399396
H        -1.58063251214973       1.33944346705175       2.66604921682110
C        -0.93891709580090      -0.27047068239906       3.95362813993230
H        -0.02375207630787      -0.85904567036277       4.17873508984125
H        -1.75280574137703      -0.96115180165308       3.64490328960571
H        -1.25589816934239       0.26157290548857       4.87539399687508
Cl        0.77547360759064       4.39755210521951       2.25553201792474
