46
C14H29NO2 optimized with DFTB in AMS.
N         1.37566518341156      -0.92731191413964      -0.19415636024652
C         2.42228072643021      -0.84931537456603      -1.29075792736961
C         1.80846810046095      -2.04735472144601       0.71530200551177
C         1.36642318537622       0.36138711372639       0.58902166044638
C         0.04231519447561      -1.23221620798676      -0.79805521018883
C         3.48656653360760      -1.89243064683726      -0.96863276628545
C         3.31020355509793      -2.16434541441930       0.52040784580907
C         0.81878253815983       1.55429259340501      -0.18894924753016
C        -1.08782572757547      -1.35402759534074       0.22291076833482
C         1.11846338104816       2.84243372142142       0.58711063956095
C        -2.38645728111251      -1.74987569588891      -0.48993778981981
C         0.50242545576571       4.05400850313046      -0.10769411738333
C        -3.54361033909828      -1.86726318208821       0.49971888931953
H         2.85390706866583       0.16237393806205      -1.27673942762748
H         1.94369697711027      -1.02731498001600      -2.25430884184867
H         1.30475647921307      -2.96226657547291       0.39141419665068
H         1.51691649071109      -1.82018068591620       1.74046262670497
H         0.77688538586484       0.19604381833664       1.49418864010330
H         2.41422373573723       0.54055792082781       0.86706904010703
H        -0.18247954131499      -0.43934894220432      -1.51458576070160
H         0.14978680288480      -2.17187680768256      -1.34743647455770
H         3.33096275922138      -2.80295441020648      -1.55514669468678
H         4.47964283052427      -1.49587563685578      -1.18190441718660
H         3.83274984451808      -1.39907973822567       1.09719430441246
H         3.66768883375194      -3.15263674931069       0.81160119215958
H         1.30422774263895       1.61947356033569      -1.16474199527829
H        -0.26207225848624       1.45907383851950      -0.33913323181877
H        -0.84100161997031      -2.10974931070414       0.97369961341743
H        -1.23862600350089      -0.40244953840653       0.73832542454074
H         2.20249066439698       2.97016574760995       0.64304549581863
H         0.72566147845200       2.76149817881700       1.60672643692838
H        -2.62808366936947      -0.99695855042007      -1.24730144261291
H        -2.24393164324226      -2.70732176770323      -1.00208776139599
H        -0.58266300648201       3.95331168392664      -0.17420757763788
H         0.90509144179994       4.15736952335680      -1.11582990028982
H         0.73362232151475       4.95994097523277       0.45284055320578
H        -3.71254244249793      -0.91541951221159       1.00447000979313
H        -3.32783694545426      -2.62670853328262       1.25220766833530
H        -4.45514882262929      -2.14840002005572      -0.02721664582634
C         5.82229933750702       2.36817935552971      -0.02918909904180
C         4.52362144492065       1.53287530473513      -0.09055722836648
O         3.69820986538048       1.83774685015271      -0.97896782187596
O         4.39476469076572       0.62546911018405       0.76117363535098
H         6.09668498760502       2.70602301657524      -1.02671499335651
H         5.63740448051833       3.23880886068302       0.59984734029868
H         6.62708823799743       1.78001681641951       0.40760874562370
