63
C17H36F2N2O4S2 optimized with ForceField in AMS.
N        -0.52501108107279       1.79283208604108      -0.21609588919549
C        -1.37953087277924       2.34471730238418      -1.31843325024901
C        -0.18650119025787       2.90457911296716       0.73306317149524
C        -1.22124381743971       0.68843329969883       0.53328397198679
C         0.74589583702504       1.31038973633444      -0.86036690538640
C        -2.64595749249767       3.06803600289323      -0.83114370376664
C        -1.41271290058052       3.67160792211888       1.26745280701929
C        -2.27946103670695       4.19640651196636       0.12711960134686
C        -1.54432791333731      -0.58361276941568      -0.28839654716066
C         1.76157269948657       0.61895229317737       0.08348710883053
C        -2.23027190741451      -1.63558133484457       0.59361899392056
C         3.03203580634757       0.22583171668653      -0.68330035564129
C        -2.53620232494950      -2.91004089432918      -0.20162610917005
C         4.03756064945077      -0.48007575903437       0.23468470390317
C        -3.22936697282369      -3.95437826561246       0.68088693697896
C         5.31302968636472      -0.85283765101781      -0.53016081722328
C        -3.50834704123079      -5.23636912393062      -0.09787181079204
C         6.30815258119375      -1.57371259758538       0.37471277955516
H        -0.79813078100929       3.08494446831695      -1.91702968156564
H        -1.67343536498862       1.55666356254170      -2.04213678138040
H         0.36140739831471       2.51961450870806       1.61974143038708
H         0.48254175850312       3.64775867744493       0.24077585919618
H        -0.61769669336565       0.38887282660613       1.41817120110350
H        -2.17728197208912       1.04405005478783       0.96393255962990
H         0.51640031300038       0.61267260345662      -1.69636764346431
H         1.27169863571928       2.16644489598503      -1.34399544686158
H        -3.17368660004041       3.50085213238788      -1.70855336439907
H        -3.35351700758101       2.36368970013697      -0.34887855103227
H        -2.01719996620966       3.03273245588060       1.94450734464666
H        -1.06042619275425       4.53414852329195       1.87394551850720
H        -3.20600568398563       4.64846999252263       0.54158782688681
H        -1.72653485353823       4.98863888506771      -0.42451092919414
H        -2.22889519037244      -0.34211960485264      -1.12618688521601
H        -0.61795081485139      -1.03312113856128      -0.69937329553048
H         1.32433600194758      -0.30267582900973       0.51907847768657
H         2.05505607735903       1.30010185601412       0.90748439128742
H        -3.17928209832272      -1.21678694881348       0.99568306852533
H        -1.56549365608776      -1.88896869696215       1.44901050548764
H         3.50251778563280       1.14001994581123      -1.10816435130032
H         2.76131558617356      -0.45398412821418      -1.52116389316091
H        -3.19594069275479      -2.65920253652183      -1.06173063559647
H        -1.58597041332330      -3.33391801353976      -0.59549969103274
H         4.30083192892953       0.19276217745384       1.08060706042730
H         3.57319987449739      -1.40272682858135       0.64775858145452
H        -2.58373149205196      -4.19780062264931       1.55292454486956
H        -4.19187927021080      -3.54541325850759       1.05858845578425
H         5.05809932751637      -1.51708509384232      -1.38459323228109
H         5.79215318582648       0.06736431791339      -0.93024072104202
H        -4.01779357336663      -5.96922587774428       0.56278537686677
H        -2.55701912951713      -5.68394663731126      -0.45688329667682
H        -4.16590730942173      -5.02447297521619      -0.96777471583718
H         6.59732442603631      -0.92246405317393       1.22697212379139
H         5.86344894770488      -2.51379693937152       0.76536805841180
H         7.22129993551824      -1.82711643752287      -0.20417499414972
N        -4.77754711705723      -0.68861588540909      -3.30529388400347
S        -5.73470993381218       0.18671196250332      -2.30862080105553
S        -5.15852536152956      -0.88964681081218      -4.88380950981905
F        -7.22456043416670      -0.56379505197122      -2.16520644272534
F        -4.95409182720797       0.56089196533462      -5.69429567485091
O        -5.09283841015745       0.28956754279081      -0.95454669829966
O        -5.93803567383170       1.56255794053403      -2.87845611990641
O        -6.59273174321798      -1.32014866940127      -5.01434813312240
O        -4.26089211373422      -1.93098893329891      -5.48938933289760
