43
C13H28ClN optimized with DFTB in AMS.
N        -1.27739979656263       0.16014069442514      -0.16773758928196
C        -2.15654218058504       0.64757986838303      -1.28789597310838
C        -1.51402386202387      -1.31180188138548       0.04143461708455
C         0.14175615198488       0.35540596336995      -0.64271528809417
C        -1.54499234809736       0.89062714976891       1.11504210173911
C        -3.63072164654487       0.33499333818860      -1.07929857440812
C        -2.98086701004193      -1.66215839551881       0.25473270526517
C        -3.82561976852754      -1.17055989188718      -0.91775442127535
C         1.22093995086182      -0.09511086452040       0.33548655686738
C        -1.20669692243915       2.37465696712198       1.09656949202802
C         2.59645372096799       0.24029916526670      -0.25677370188960
C         3.72144515772397      -0.31071062933481       0.62390017708629
C         5.09657679847800       0.09446190119514       0.08290933938893
C         6.22436106860988      -0.51313268916458       0.91463515056891
H        -1.80521842081254       0.12976719161798      -2.18842385044299
H        -1.99157740924121       1.72047353160783      -1.39937949386173
H        -0.92031837405657      -1.62424428476618       0.90227848617668
H        -1.14864003203161      -1.80911094043651      -0.86488583163452
H         0.25874487079910       1.41551679720763      -0.87836887937779
H         0.22593921351542      -0.22073722837504      -1.57136656477374
H        -2.60459469065222       0.76557716321484       1.34434812419837
H        -0.96874990878160       0.39086083765197       1.89723827774214
H        -4.16246904751257       0.68584289389206      -1.96766069807619
H        -4.03741554952458       0.87050303508384      -0.21508183867480
H        -3.35548117122087      -1.24657380949479       1.19603459240011
H        -3.04143143670235      -2.75130516362170       0.32512019632443
H        -4.87968483704866      -1.39683481776086      -0.74116133867298
H        -3.50703848275252      -1.67790208177537      -1.83311393675794
H         1.11730619525895       0.40200225043979       1.30453054071361
H         1.15820364314771      -1.17416172325416       0.49742447014559
H        -0.13991436018425       2.54597268205582       0.96635532088477
H        -1.74898343209119       2.90397674481557       0.31533165199330
H        -1.50274789274415       2.79170182809399       2.05921339473090
H         2.69642558612965       1.32735988740847      -0.34704620943050
H         2.67353051358013      -0.18838681805163      -1.26089119300586
H         3.64941609674091      -1.40285965485050       0.66091918901772
H         3.60520337212182       0.06672289663655       1.64601847783026
H         5.19024705323481      -0.23639667086659      -0.95657075210183
H         5.18323750583195       1.18639248993453       0.09366527531088
H         6.13813455813610      -0.20825294276290       1.95866394885898
H         6.19011488534272      -1.60210709467904       0.86670946268025
H         7.18981425743748      -0.17949745501131       0.53372334877546
Cl       -0.74656862712411      -1.65703020546247      -3.05749556164339
