32
C10H15F3N2O2 optimized with DFTB in AMS.
H         2.30240650218587      -0.10112130002822      -5.05502648725784
H         0.56427999283753      -0.50470131306883      -5.10933965276999
H         1.68674111746289      -1.53450375079932      -4.17450606443760
C         1.46559232783155      -0.51367620124387      -4.49590949257681
H         1.94817427223653       2.41168298819990      -0.94866849897638
H         2.78060016147526       1.76989507985886      -3.51079074097063
H        -0.29161563448634      -0.87225760416503      -2.35287292771998
N         1.25480615210245       0.28112775498224      -3.29965430798315
C         0.43174710095018      -0.07849848472624      -2.31446909121212
N         0.60501338899136       0.77883825349759      -1.30835005910228
C         1.60857370957172       1.65375221092324      -1.63184074504325
C         2.01844861443328       1.33809517880017      -2.88683802053462
C        -0.01299045115015       0.66858392751557       0.00755401855479
H        -0.00461334632269       1.66250500968242       0.46393471549990
H        -1.05016057408338       0.34744432381727      -0.12593471778760
C         0.76961631355352      -0.33515034280242       0.86077803576092
H         1.82994701129355      -0.06890208314524       0.83841027218630
H         0.66809455099587      -1.33019179651535       0.42083214606601
C         0.25627103737288      -0.35250283432099       2.30173795934696
H         0.34830084211244       0.64861443469735       2.73805346519315
H        -0.80517705638714      -0.62456404975835       2.30890582680044
C         1.04880706760459      -1.35373474406457       3.14053433171207
H         2.10102809246926      -1.07039177420978       3.17545680254406
H         0.97510869081573      -2.35206208757942       2.70938845782313
H         0.65888760547632      -1.38006627217386       4.15817779157845
C         2.50922727381185      -1.93689265422481      -1.35120691126991
O         3.03447017278888      -0.84240728262278      -1.18260557271868
O         1.56954134441575      -2.28230707059539      -2.08015484595860
C         3.07882210784457      -3.11308253746620      -0.41407870673533
F         2.37675626675770      -3.14106825081128       0.74706969179963
F         4.36485847205372      -2.94249736558884      -0.08045150559722
F         2.96739174288442      -4.33178520916381      -0.95986342861375
