37
C13H21NO2 optimized with DFTB in AMS.
N         1.15230960073056      -0.95348362866259       0.16522843216430
C        -2.36814651751594       0.36142109749640      -0.36457831597480
C        -0.97121458818831       0.29907581416339       0.25916678752716
C        -3.31579497479193       1.18932802299586       0.50836575571476
C        -0.09947467897483      -0.67454897543023      -0.53849481023716
C        -4.73901009631171       1.24094308330368      -0.06007660796231
C        -5.46292664191860      -0.10199880508368       0.03898904340578
C         1.08802033677892      -1.64754859898062       1.31456610190268
C         2.32237579554371      -0.53736105813424      -0.34921146127784
C         2.25757102566706      -1.93506843079699       1.99550432733048
C         3.50537337774503      -0.79807377752499       0.30606051779724
C         3.48059479064646      -1.50566226981582       1.50352496591703
H        -2.74861340335925      -0.65952789202894      -0.46089850528854
H        -2.30892575845685       0.79716886919527      -1.36833368249913
H        -0.50629331682027       1.29058798816067       0.27789288249849
H        -1.05649441300244      -0.06196500382098       1.28782423859508
H        -3.34302520887232       0.76309074272922       1.51683923032750
H        -2.92950579974186       2.21170587631152       0.58920172206458
H         0.13331317159545      -0.28138715462991      -1.53095144586951
H        -0.63411016882420      -1.63501506484121      -0.62212290350125
H        -5.30756017473895       1.99102173357499       0.50026510831274
H        -4.70472860805432       1.56390224770319      -1.10665068648684
H        -5.47720831333994      -0.45029295291787       1.07278519439275
H        -6.49214566174336       0.00510166405919      -0.30599019695994
H        -4.97345645285486      -0.85903456844903      -0.57382527612057
H         0.04253397781541      -1.96042022328852       1.68563230438794
H         2.28758310255790       0.00287238686028      -1.28785843191210
H         2.19912079275473      -2.49907395678735       2.91789399801491
H         4.43761703177545      -0.45003720907230      -0.12065522450749
H         4.40144858123902      -1.71592971461117       2.03423552184948
C        -3.42870183155955      -3.39065624962456       1.91026400564679
C        -2.09798363822254      -2.79464965093867       1.40649035520339
O        -1.38242139296163      -2.23628537259805       2.27880686157721
O        -1.83752099058044      -2.90009239952814       0.19670375218927
H        -3.21841078887801      -4.13051877714446       2.68121143315080
H        -4.02709739152134      -2.59309633923722       2.34922571118072
H        -3.97273173171626      -3.85293776320616       1.08939562114636
