55
C15H20F18NP optimized with ForceField in AMS.
N        -0.40750687741847       0.16780083275330      -0.07802331632431
C        -0.97620775693067      -0.88618770931039      -0.97382662419559
C        -1.46529144146978       0.41253661607310       0.95025030104090
C        -2.44095021172634      -1.06768470683073      -0.62411043911809
C        -2.50822355309874      -0.68116177834083       0.82613491274399
C         0.83342012258296      -0.33773743248995       0.59511910628308
C        -0.15790481673819       1.41508508962956      -0.87091714355197
C         2.01686628318221      -0.60998891633140      -0.36413223728522
C         0.45036123944505       2.57497533130738      -0.06193906833378
C         3.16353873096543      -1.30186485408701       0.36600949749151
H        -0.48614767973797      -1.87584612765830      -0.82393025774302
H        -0.87391187796903      -0.64656482692058      -2.05676175090762
H        -1.99392920624983       1.37995541524691       0.78783851806925
H        -1.07028926241903       0.44189100352029       1.99126485343805
H        -2.78165127772292      -2.11370652198024      -0.78475007985667
H        -3.06334533751794      -0.37246997632273      -1.23019784696244
H        -3.52260022239222      -0.32394808371094       1.10818193973925
H        -2.22423016867433      -1.54843622915972       1.46244377274437
H         0.59902058882103      -1.27933800120385       1.14470690008648
H         1.17556318749568       0.38046774348644       1.37301028391296
H         0.51218611255890       1.20802976335827      -1.73376952361002
H        -1.11245933363140       1.77546002026058      -1.31926624729956
H         1.70362542451953      -1.25283007814815      -1.21265956249772
H         2.40686020264786       0.34303622387335      -0.77754611981254
H        -0.13347062508460       2.78613719394121       0.85649759504001
H         1.50261049480058       2.36123801024991       0.21507363362045
H         0.45136381264165       3.49262945170951      -0.68735505281290
H         3.53335720355598      -0.66072927277485       1.19458729664369
H         2.82880700424024      -2.27770035617051       0.77776346917511
H         3.99795507750898      -1.48523604075778      -0.34314516506644
P         9.09133706648606       0.95776643510629       0.91929554983102
F         9.77195782513882       2.49091800362278       0.53182336287661
F         8.82855060704660       0.78141550760999       2.61408782216996
F         8.96379817252341       1.00772354047484      -0.79574678773784
C         7.57342328204350       2.12544512730833       1.22826257755957
C        10.98740107785144       0.82345627337521       1.28785621917289
C         8.60417417626358      -0.86637256918515       0.50311648108647
C         7.07232566103795       2.98617609537643       0.03625252388588
C        11.48648787209773      -0.48039646269004       1.94540842616990
C         7.13810791551962      -1.12548267568503       0.10650166566884
F         7.89211447440535       3.01829222253835       2.24438590368729
F         6.50048012004532       1.38095766719927       1.67611199780734
F        11.36988002273093       1.84895781537535       2.14829670778087
F        11.68628250075006       0.97085461773616       0.09773210164973
F         8.83300139508249      -1.65172786705092       1.61849849584567
F         9.41503226036173      -1.35176561076493      -0.51424765837911
F         5.90579984740966       3.62759426071106       0.41434930457204
F         6.78840282776216       2.22752967283869      -1.07899465501146
F         7.99052817452748       3.96219878568635      -0.30782434096100
F        12.82022240173478      -0.32442444651828       2.28156694904158
F        10.79113968844944      -0.76260410299145       3.10640424045582
F        11.40431130029793      -1.54966229248466       1.07582276661058
F         6.31322519687307      -1.03613883570019       1.21130338627789
F         7.02888367854627      -2.41274396747771      -0.38908156757416
F         6.70353349243003      -0.26026923832258      -0.87284340923758
