26
C8H15ClN2 optimized with DFTB in AMS.
N        -0.49651547575073      -0.58350821720210       0.41043378309910
N         1.65968484448340      -0.61852432059605       0.36484574840202
C        -1.85894748890575      -0.12585125818991       0.65408539320156
C        -2.37150956727049       0.66167984672816      -0.55722788364341
C         0.60217955512825      -0.00214998227768       0.90015552045691
C        -0.13048569853783      -1.50245315801599      -0.54371805219749
C         3.04606984174303      -0.20818387661849       0.55452295588689
C         1.22363343012734      -1.52469752006396      -0.57200246698062
C        -3.75642082830499       1.23625355903262      -0.27960274474432
C         3.53955595728777       0.56426857084259      -0.66523457415249
H        -1.84058471997238       0.50684690752170       1.54505712126740
H        -2.48627554778880      -1.00124872854833       0.85197521964104
H        -1.66475143349312       1.46882246500930      -0.77242927480257
H        -2.41088208884942      -0.00241519757348      -1.42599791135227
H         0.63238641796335       0.67524156240799       1.73302273959561
H        -0.85584067788278      -2.06641902461651      -1.10301400930819
H         3.08251957340583       0.41922421871650       1.44856511343177
H         3.64890436983629      -1.10619758008783       0.72444075294985
H         1.90745713535463      -2.11174087021413      -1.15940548693110
H        -3.72725685925937       1.92991014559322       0.56094224320288
H        -4.46909852756404       0.44122990934315      -0.05215509214547
H        -4.10773363241338       1.77591103758315      -1.15847812984991
H         3.53421444892657      -0.07303046475331      -1.54872726076815
H         4.55546635651441       0.90916551332904      -0.48031829974657
H         2.89163291263327       1.42242531167045      -0.84314877814099
Cl        0.60841811228894       2.21719393847990      -0.30913242687148
