22
C8H8F3NO2 optimized with DFTB in AMS.
N        -0.39467640995895       0.21355209254286       0.09927315043380
C         0.49130198526917       1.17166254495176      -0.45180815328461
C         0.02293019947196      -1.07326941850303       0.31771069704028
C        -1.82591638227777       0.49073117908103       0.00139410580693
C         1.91136907355415       0.89282174399685      -0.13246422848986
C         1.33582816535942      -1.38679383357501       0.38749410198511
C         2.30279897745588      -0.34578925830051       0.21443127608715
H         0.16530162001672       2.18972909294054      -0.20889276788797
H        -0.76363194905033      -1.79422903137931       0.50983234517920
H        -2.35105193950285      -0.06677685215318       0.77687730691541
H        -1.99183594472459       1.55771821250200       0.14516327070047
H        -2.20798786770913       0.19776712205458      -0.98021235656791
H         2.60700687899477       1.70977488783330      -0.27245723432416
H         1.65196149933309      -2.39630936284328       0.60919749813345
H         3.34751607572691      -0.56387056188898       0.40423375619530
C        -0.47898713977704       1.90790644754799      -2.57512627930630
O        -1.21181358869728       2.70689106729621      -2.06565161543179
O         0.36797917478961       1.11341498505416      -1.99669443596873
C        -0.44905519657400       1.68740332611618      -4.13217796610248
F        -0.83150530614022       0.44226468439470      -4.42919142788694
F         0.78036283283982       1.86813093117316      -4.61606443458672
F        -1.26826670059931       2.53080279635799      -4.75010546073961
