46
C12H14F18NP optimized with DFTB in AMS.
N         0.43977326640619      -1.31887583281528      -0.44023073360131
C        -0.73221525430980      -1.86996272351616      -1.19498997130183
C         0.64270101925014      -2.32542351440748       0.64936470283889
C        -1.65309280534257      -2.45917004604489      -0.12744931911030
C        -0.76798502858300      -2.66912664797591       1.11333889546435
C         0.10907194633977       0.01421883515847       0.12575500992336
C         1.64571297269167      -1.18816605298331      -1.29665399271166
H        -0.35692285731765      -2.64868329202606      -1.85818886942620
H        -1.18947109629655      -1.07572033898368      -1.78522285560844
H         1.28279145261991      -1.90590758477428       1.42577448858123
H         1.12338906512187      -3.19532175012952       0.19654304765811
H        -2.06414334837933      -3.40470428106975      -0.48323748316744
H        -2.48313230371909      -1.78590820457510       0.09583698738248
H        -1.08139218716968      -2.01789690781370       1.93243709518417
H        -0.80603365761537      -3.70021425592194       1.46417578836508
H        -0.04567384724806       0.71242749402107      -0.69485126190006
H        -0.79577378126696      -0.05613794493222       0.72417610457392
H         0.93802048406583       0.35074643957412       0.74603810561790
H         1.93642948076661      -2.17242023844343      -1.65002353331547
H         1.40756249625253      -0.54679621260101      -2.14264858932316
H         2.45038531362849      -0.75401399831047      -0.70602967487684
P         0.96256768278476      -5.27072016644618      -2.97401763034117
F         1.44991282823844      -4.17113029043245      -1.72559017644793
F        -0.60182991933510      -4.63722228258933      -2.77453420716551
F         2.52713251161924      -5.85643616489830      -3.14133974835868
C         1.45703881261455      -3.76097385944183      -4.15427664144966
C         0.74555521753507      -6.55300010360824      -1.49789916050748
C         0.21334094787550      -6.44807385081499      -4.38349664226729
C         2.95102254178938      -3.33112751279696      -4.20310141822970
C        -0.57772644419555      -6.54153234513213      -0.69227185108066
C         1.18605603624278      -7.25402984774407      -5.28272576381311
F         0.79224214474143      -2.65031759521698      -3.72778280925952
F         1.10377677937097      -3.94891163183579      -5.43246872319827
F         1.70829988239652      -6.31429606307369      -0.58532607078521
F         0.94603064532257      -7.80297452302554      -1.94209358999244
F        -0.56630933785269      -5.71503942483775      -5.19831917487836
F        -0.60424554679998      -7.33570742363244      -3.78469722056675
F         3.04818526038862      -2.15891634888043      -4.84400858608387
F         3.70485674196043      -4.20901750023533      -4.84106396189802
F         3.46067479054426      -3.14015796367241      -2.98052503916518
F        -0.55736485117188      -7.45885777953684       0.27255884109822
F        -0.71877697742933      -5.34202135426204      -0.09231282818078
F        -1.65416365803262      -6.74747521812131      -1.43419716325985
F         0.52718116238001      -7.86577486422883      -6.26613016374430
F         1.82887249000979      -8.17863488699689      -4.57850009496001
F         2.08836883130783      -6.44367709716873      -5.83443241901120
