44
C12H26BF4N optimized with ADF in AMS.
N        -0.52375518477983      -0.38858918723499       0.08619745428161
C         0.08168353775937      -0.24688752875219       1.48029414676485
C        -1.78905345752145      -1.21680759711000       0.18597273743361
C         0.45098520254604      -1.14525341088522      -0.80922584008586
C        -0.89914112397307       0.31866757023375       2.48913857231897
C        -2.79771025740625      -0.65559368697550       1.17626020110780
C        -2.18113942386256      -0.50485355895330       2.56696280321625
C        -0.82398832589778       0.94998059005307      -0.52187836666299
C         1.75703795252612      -0.42553604909273      -1.07931809578191
C         2.76763817698291      -1.34384831268282      -1.77012461850599
C         4.10233204448586      -0.62967536965260      -2.01354279495468
C         4.86600689837585      -0.29094892059107      -0.73232551324376
C         6.20526604234297       0.38473684566253      -1.01718370394205
H         0.96854567895966       0.39626960704844       1.39964939389719
H         0.38775067301310      -1.26954614032383       1.75916170552445
H        -1.46601387863584      -2.22285050515032       0.50053039333586
H        -2.20367024853897      -1.28633379251374      -0.83140349511704
H         0.62903518518996      -2.10649822267863      -0.29938541818325
H        -0.09841237097384      -1.35136927792527      -1.74362488615570
H        -0.37429873702924       0.33057310360135       3.45861874551742
H        -1.09925394467006       1.37560047206833       2.25323532985122
H        -3.18751472030854       0.31244233623193       0.82044078585522
H        -3.65678844852694      -1.34725330581579       1.19531109783856
H        -1.95470436095847      -1.50859770839441       2.97284919748375
H        -2.90338137074550      -0.03635018132706       3.25407966645204
H         0.09906859965272       1.54026163410258      -0.58764463829517
H        -1.25925998738647       0.77367603420031      -1.51485617066408
H        -1.53145693161190       1.48657717198480       0.11482614009625
H         1.59109990635645       0.46193974896179      -1.70815259635951
H         2.18890830340671      -0.04883484692389      -0.14282763866436
H         2.94538396308525      -2.24181458290662      -1.14752152240596
H         2.35641038382490      -1.69922795060961      -2.73284104714836
H         3.91508987057858       0.30185204994124      -2.57974005122609
H         4.73660634523606      -1.26751389054943      -2.65632444279553
H         5.03490874271492      -1.22294075219723      -0.15961110310664
H         4.26339620883611       0.37524646429091      -0.09279934814432
H         6.84941783313459      -0.25072375766353      -1.64752995229739
H         6.05275615940989       1.34120160041061      -1.54233164514570
H         6.74670784668849       0.60112031877015      -0.08378232407116
B         1.95275171972823       2.80534669566822       0.83457829044486
F         2.68489733736055       3.94132407030459       1.16297513672758
F         0.63782364338571       2.84071325345821       1.40601134024037
F         2.60723763774324       1.61321475844035       1.32744781666188
F         1.81103081380246       2.67072174287660      -0.58922889079224
