25
C9H10F3NO2 optimized with ForceField in AMS.
N         0.15634061030621      -0.00079739659443      -0.37446909911103
C         1.59978443221516       0.00203210678568      -0.63643171609622
C        -0.51051250819609       1.18614512696629      -0.23944751313615
C        -0.50755434726472      -1.18950318616452      -0.24078308065624
C         2.37381620603683       0.01281950729526       0.67641712720446
C        -1.88005551884831       1.20239393070104       0.03394435601217
C        -1.87721403405192      -1.20911246604839       0.03260968815583
C        -2.56507405161984      -0.00419656957058       0.17048080827222
H         1.89033807265932      -0.89377625132354      -1.22895958518500
H         1.88330476598672       0.89339593271713      -1.23887300304442
H         0.01750417269782       2.12777147046774      -0.33561821553035
H         0.02267721075751      -2.12977487539941      -0.33778764420031
H         2.10162830273590       0.90736519401916       1.27583010674053
H         3.46045735570161       0.04460497717486       0.46200399613162
H         2.14640100727098      -0.90266586655442       1.26329081527426
H        -2.40318232067334       2.14357492117419       0.14317532074140
H        -2.39837186702101      -2.15148578739866       0.14086991063075
H        -3.62594726497109      -0.00542422818166       0.38592755210157
C         7.19426405705778      -2.33158807293945       1.29226769916194
O         8.10796415268026      -1.52336374489067       1.34145305057109
O         7.44563148064914      -3.51695217523278       1.14725482036070
C         5.76898899003188      -1.87718485370865       1.40315163498877
F         5.09933364651450      -2.17026525521235       0.22942677315569
F         5.71178573757711      -0.51300470511630       1.62954076775178
F         5.15237674876760      -2.53241750946555       2.45295983750492
