49
C13H28F6NP optimized with ForceField in AMS.
N        -0.69544735546915       0.52935150205855      -0.20450417167383
C        -1.66761478794501       0.26563851057985      -1.31583112144837
C        -1.25226209354811       1.61097879236638       0.67411669458958
C         0.56440826219969       1.03882032547428      -0.85127725034028
C        -0.43862891692619      -0.70459297908292       0.61952696277688
C        -3.08700994051481      -0.08416422704282      -0.84088285986860
C        -2.67647418682072       1.32914118726022       1.19566209989910
C        -3.64059470833024       1.02152497782300       0.05277596149892
C         1.76018244714485       1.29391984403180       0.10127686086119
C         0.22994022540185      -1.88535791622401      -0.12765380676535
C         2.96620768818312       1.83762941043630      -0.67757848789634
C         0.44665615693777      -3.07164508165913       0.82074084048555
C         4.17113258925735       2.04797407421450       0.23671049052955
C         1.10540858494270      -4.24565671441204       0.10077754018208
H        -1.30981270746850      -0.53656039744909      -1.99313130697095
H        -1.75915275400314       1.16636334888241      -1.96379626825524
H        -1.28597704324677       2.58112892434422       0.12646915401846
H        -0.60922285086809       1.77113494132788       1.56625486105954
H         0.35470385899408       1.99557075308127      -1.38462170964500
H         0.89961361571527       0.33985901079433      -1.65007953833488
H        -1.37963532825677      -1.09134742219994       1.05768535062440
H         0.18625571406676      -0.45131498284281       1.50452014642070
H        -3.10595233549856      -1.05960035464983      -0.31285616633341
H        -3.74641429880903      -0.18912944165269      -1.72923361909861
H        -3.04263106317410       2.22723815422456       1.73897214891163
H        -2.67364724241004       0.49534931053480       1.92796602444143
H        -3.80745275896368       1.94111705655567      -0.55126717880494
H        -4.62050847568776       0.70317692290252       0.47017335237610
H         2.07129097186358       0.35195171804739       0.59686883434468
H         1.48715111176013       2.03596015869023       0.87853677275188
H         1.21709720228615      -1.58482511587074      -0.53334477161351
H        -0.41293763900039      -2.23028580200356      -0.96191901939724
H         2.70075590996791       2.80828792758884      -1.15035666922461
H         3.24898919025109       1.12169848378547      -1.48009917023251
H        -0.53112059335484      -3.40701942682709       1.23022746377321
H         1.09580946119206      -2.76042960276319       1.66799799141464
H         4.47820144625891       1.08543123552266       0.69930840740780
H         3.92715746415373       2.77819733876079       1.03768002894834
H         5.02414284185755       2.44287454787491      -0.35487863579144
H         2.10278713940920      -3.94980319839526      -0.28923648540660
H         0.46903808933660      -4.58907256260912      -0.74283798165045
H         1.23810987604100      -5.08982054437408       0.81004075828930
P        -3.45891390279937       2.98292756981337      -4.63032742372751
F        -4.40602836468809       2.79066908405674      -6.05077532463577
F        -4.81388095916471       3.69042588251124      -3.84659356254545
F        -3.94434465764698       1.44637058431880      -4.03486920170254
F        -2.52131887617684       3.30186774201078      -3.22729124932460
F        -2.12029052876639       2.20794971800493      -5.37814661141323
F        -2.94969130958306       4.50275179297961      -5.24796312960375
