41
C11H22F3NO3S optimized with ForceField in AMS.
N        -0.55973371115916       0.30102838927091       0.15152958904100
C        -1.55091130359157       1.22876988014203      -0.48012183910098
C        -0.89673713392731      -1.11439210850744      -0.19029393735650
C         0.78110098203412       0.66286114915397      -0.41759270654030
C        -3.01967735276399       0.89683202758120      -0.16037441255765
C        -2.34857639811442      -1.49982098545177       0.15080933449326
C        -3.33926043240393      -0.55064461917859      -0.51575522419116
C        -0.54241504861105       0.50287964208492       1.62620256245170
C         1.98704538032075      -0.15633291282659       0.10641196085207
C         3.28647224364030       0.33230921728805      -0.54835606994909
C         4.49530585978566      -0.45328958152762      -0.04864113750885
H        -1.44918592806828       1.20201160723893      -1.59067295984013
H        -1.35478733579879       2.28117176764709      -0.17134643380326
H        -0.23539337211817      -1.82285019754722       0.35363371268922
H        -0.74264052230142      -1.29364793564100      -1.27946976108709
H         0.99470234136772       1.73883266483668      -0.21683018801006
H         0.76355579791339       0.55192179678464      -1.52675829808518
H        -3.67747929898759       1.55998711163910      -0.76052335482645
H        -3.25418925065502       1.09675857411042       0.90536529023373
H        -2.50531822590784      -1.50445738360062       1.25010353899658
H        -2.54381937367317      -2.53267262699602      -0.20965873243519
H        -4.37078790786439      -0.79357458217154      -0.18107679654360
H        -3.29484564260348      -0.68060953194954      -1.61946888550465
H        -1.54328761480824       0.38045191287716       2.08231251700357
H         0.10583421215460      -0.24197131781667       2.13325324778195
H        -0.18480834749607       1.52377059741146       1.88638933041727
H         1.85982998770749      -1.23218397297148      -0.13361904012716
H         2.09387952155987      -0.03863147255503       1.20416799282042
H         3.44046183926383       1.40891337705912      -0.31620356992299
H         3.21653817664699       0.21811976755486      -1.65211962833408
H         4.38410927572382      -1.53081711800593      -0.29387391210718
H         4.60631403690487      -0.33472661953275       1.05022266813998
H         5.41414736904613      -0.07016031522281      -0.54080100577129
S        -6.34346915522604       3.84317822049256      -2.06194392150063
O        -7.61311267149465       4.58681984467268      -2.50250639843550
O        -5.91845043448550       3.09511824262937      -3.33413743781315
O        -6.88894519161758       2.72375765612182      -1.16295894322774
C        -5.06256130181639       4.88670674695141      -1.31151287221385
F        -5.56718825158400       5.48930612073326      -0.17530705417359
F        -4.67284840086718       5.85756083404716      -2.21378227159575
F        -3.97134838942427       4.11093295847384      -0.97369006165772
