34
C10H22ClN optimized with ForceField in AMS.
N        -0.11335050895554       0.02814666881708      -0.08534179473134
C        -1.03386117187938       0.51242517527463      -1.16518800638847
C        -0.62187192169359      -1.28622140954818       0.42719263755809
C         1.22646481714296      -0.19454611333845      -0.73196972550139
C        -2.50705087110800       0.61807607806473      -0.73563583339196
C        -2.09496460732668      -1.25715388327915       0.88349463401342
C        -0.02178546553324       1.00887271531419       1.05160895569856
C        -3.01107216282365      -0.72331155030994      -0.21359505155802
C         2.37042993409741      -0.62500744788958       0.21994794235690
C         0.58374647010866       2.38121673698643       0.70447042254065
C         3.66296014161303      -0.86811524121224      -0.55571391219394
H        -1.00163295618269      -0.18480866312083      -2.03510878469094
H        -0.70870708196209       1.49454533258974      -1.56698659623175
H        -0.02435588473214      -1.63205936427513       1.29788875239439
H        -0.53080025117757      -2.07220905352839      -0.35756050779387
H         1.55242971248297       0.72151553161037      -1.27354165966857
H         1.13889541243233      -0.97631536407035      -1.52205308211538
H        -3.11849911209802       0.90893328629889      -1.61723687077495
H        -2.64904761780996       1.41157330843706       0.02641122586047
H        -2.21167484099293      -0.65207324442200       1.80652085085011
H        -2.41186558478886      -2.29182953548890       1.13810887702360
H        -1.01684640773448       1.20639185948822       1.49435440103674
H         0.56861014712929       0.57872182652509       1.88793453944907
H        -4.03963925748945      -0.60089744609445       0.18975590155456
H        -3.05516296721883      -1.45552368143228      -1.04990366077577
H         2.57870490369347       0.16309701338181       0.97105924899132
H         2.11507249106465      -1.56467604326872       0.74902260871857
H         0.61251307293501       3.00099044332335       1.62557511731104
H         1.62613557659656       2.29678554681465       0.33959882650235
H        -0.03495626639332       2.92739571474405      -0.03420282750683
H         4.46891845554788      -1.16592245199142       0.14828241329169
H         3.52235428320801      -1.68357546281249      -1.29684486584410
H         3.97841359038135       0.05754854909563      -1.08277185685610
Cl        2.35394295906683      -0.45695815378343       4.06598955317185
