46
C12H26F6NP optimized with DFTB in AMS.
N        -0.58315510119913      -0.46282411654514      -0.50886325159740
C        -1.28588373220294       0.72267075923407       0.07321933156885
C        -1.39323194815649      -1.70594059601142      -0.26079532772339
C         0.73078923486905      -0.66413877264634       0.20731179705171
C        -2.70600499880801       0.88046977645979      -0.45863091191869
C        -2.82604379214762      -1.59721101110771      -0.76270406732751
C        -3.52863273625924      -0.37528754949976      -0.17420913851442
C        -0.35185450624969      -0.28024175449399      -1.96852505499339
C         1.82069735391659       0.34215522924127      -0.14695383162838
C         3.03919616470991       0.08282714667722       0.74758927853533
C         4.19482355361413       1.02046997507473       0.38662340549954
C         5.40741566185737       0.77293939901891       1.28922308128336
C         6.57157215247446       1.69100593328264       0.92150471510996
H        -0.68971965696969       1.60878061341788      -0.15454739061156
H        -1.31015249084549       0.58255032572919       1.15777556545086
H        -1.38489447489825      -1.87619709328316       0.81903412560730
H        -0.87664787998790      -2.52900533127145      -0.75653087662498
H         0.51196807269114      -0.63051287778617       1.27807020466184
H         1.07512446815869      -1.66668509425592      -0.04744715707111
H        -3.15326233854758       1.74320255549916       0.04207976217905
H        -2.69169197450571       1.08866400758296      -1.53173527888394
H        -2.84996284432906      -1.55660575146121      -1.85454973239066
H        -3.34643153638187      -2.50819980465723      -0.45661890440651
H        -3.64298034781379      -0.49987826813537       0.90767541144312
H        -4.52408591607085      -0.27137815108539      -0.61199929035252
H         0.10999553013552       0.68931873983526      -2.13884189126043
H         0.29909213809119      -1.07722173226243      -2.31816424755703
H        -1.29919867723509      -0.32781204974589      -2.49746758321358
H         2.11889538432582       0.21237869831738      -1.18985832918143
H         1.47158368263325       1.37018582937638      -0.00801427235641
H         2.76011046119024       0.22608997065361       1.79723829559083
H         3.35927118183881      -0.95604010883241       0.62185025733475
H         3.86712229250833       2.06128380347044       0.48849084352743
H         4.47784719428751       0.85935547223335      -0.65886307459984
H         5.72273089084968      -0.27114962123243       1.19383439926878
H         5.12462951656019       0.94345023609063       2.33379594147876
H         6.88827981663149       1.51327608863730      -0.10700330295379
H         6.27984204486447       2.73793874676915       1.01872087727225
H         7.41799138834041       1.50387726616192       1.58274219899755
P         1.51810484453160      -3.76571421246706      -2.09605937162977
F         2.01292680255799      -3.78298448230939      -3.64388418280614
F         0.94225110472113      -5.28159708240524      -2.19597460788111
F         2.96320092119555      -4.28026710358710      -1.55990026632187
F         0.96600562416629      -3.65908869216985      -0.50997005251463
F         2.04177825180053      -2.16706661608781      -1.95352784903356
F         0.02175682648708      -3.16446508122338      -2.58199095360720
