58
C18H34F3NO2 optimized with ADF in AMS.
N         0.22807910462533       1.90192322043677       0.47724088460627
C        -0.16664511997532       3.04695373164461      -0.43911155587514
C         0.75636403898703       2.66132242795499       1.68661652201756
C        -0.95958015937399       1.06329451183011       0.89363034873021
C         1.31877023094110       1.08653258940680      -0.18167006282371
C        -0.87965500590982       4.03729372299950       0.46956499067019
C        -0.14186427891289       3.89959647928341       1.82600808446319
C        -1.59805591454960       0.24589353592791      -0.21675473634255
C         1.88195291890019      -0.02908449336635       0.67877334235204
C        -2.82583295790737      -0.51319685764586       0.29453195308468
C         3.12898615751915      -0.60180732186464      -0.00126498720776
C        -3.47713897707110      -1.36928644038694      -0.79117101090651
C         3.83205760078641      -1.66047680690345       0.84283522883453
C        -4.71089321486326      -2.12852117461787      -0.30516190955415
C         5.11191696186799      -2.17749119406608       0.18962975912731
C        -5.35563951427338      -2.97271477335992      -1.40209988816120
C         5.82414798547080      -3.23328434815094       1.03135002202442
H         0.79633176679823       3.47973081989054      -0.76518405000090
H        -0.74949170167968       2.66046555797540      -1.28418449142336
H         0.75937560921979       1.99219968981992       2.55587217472763
H         1.77252562848057       2.97762098183964       1.40457981661152
H        -0.59888317399797       0.40234802927600       1.69619469139680
H        -1.69172146674483       1.75460581195770       1.33699745011397
H         0.89987144830023       0.70128559818941      -1.12419204473994
H         2.13478599594201       1.80209675299608      -0.41992614979659
H        -0.79182487873449       5.05214137816924       0.05618891304235
H        -1.95317995604205       3.80852097682776       0.56632008186901
H        -0.84815893751647       3.80998113254498       2.66488116134321
H         0.50358940384973       4.77114348002929       2.00553460112636
H        -1.90402601499631       0.89724680813283      -1.05264064571334
H        -0.87230562546991      -0.47956791625893      -0.61943573789271
H         2.18393392902443       0.37567208135431       1.66061350862760
H         1.14666327699284      -0.83394162444280       0.86152184810065
H        -2.53426571675751      -1.15857550032666       1.14354381938563
H        -3.56873072537847       0.20497640975059       0.68823071183632
H         3.82082842410048       0.23253052305780      -0.20799645775059
H         2.85075298181495      -1.03336135204015      -0.98098440098103
H        -3.75996835617162      -0.72451967946170      -1.64409123273153
H        -2.73500965289238      -2.09123710525766      -1.18105179073384
H         4.08156066597101      -1.22826098803962       1.83062948880947
H         3.14824792344645      -2.50925957086981       1.03615898509578
H        -5.44954859813394      -1.40616031019278       0.08849258846920
H        -4.42744922882049      -2.77693033130432       0.54380141552869
H         4.86828568523481      -2.59499351780969      -0.80449133226990
H         5.78841470817761      -1.32310783724430       0.00896057278536
H        -5.67117150890097      -2.34454082419099      -2.25084563412176
H        -6.24345167257259      -3.50430116561955      -1.02848566013717
H        -4.64939461753189      -3.72582718037911      -1.78828717284041
H         5.17348531224919      -4.10665626061142       1.20310934718263
H         6.74232151577871      -3.58701749288603       0.53899463167417
H         6.10458709535512      -2.82600183220075       2.01654677681083
C         3.64092165996864       3.89360138862814      -0.35936497917249
O         3.88947597645705       2.69217040662214      -0.61323355942056
O         2.56522802578558       4.44304508893387       0.00400912833848
C         4.84147762837404       4.89077669039217      -0.50875700457047
F         4.59630646728538       5.81940111051913      -1.48991289167695
F         6.01848265352276       4.28109582400192      -0.82618706052276
F         5.05792538135072       5.58851235420537       0.65367282838123
