41
C11H24BF4N optimized with ADF in AMS.
N         2.38521838916405       0.25592113572744      -0.17985547247308
C         2.72710012275009      -1.00656583406543       0.59837068230056
C         3.43279766410958       0.25482117450933      -1.28585798005864
C         1.00878128401877       0.16408853702923      -0.80030524734202
C         3.14195516684696      -2.03239080479741      -0.45530918605347
C         3.59199555501358      -1.20887663753397      -1.69114397976575
C         2.51832870246995       1.47644872539605       0.67700436571038
C        -0.15186309384588       0.22170556437310       0.17947435735835
C        -1.48004150198544      -0.00639315540898      -0.54447016040143
C        -2.67633386233866       0.06392730875398       0.40273604918806
C        -4.00978536236786      -0.16403335630928      -0.30552748575500
C        -5.20069323576968      -0.09916300744526       0.64759930633414
H         1.85936688112949      -1.29179131062568       1.20574276767119
H         3.57039103875993      -0.73718360474046       1.25194965064995
H         4.35530277671900       0.64315392273435      -0.83003918046999
H         3.09068910397009       0.92809153835415      -2.08516908426031
H         0.98813163124968      -0.77596676014882      -1.37212059462595
H         0.94247421624833       0.99912885650516      -1.51631159211400
H         2.31657104570012      -2.71386454052098      -0.71294783892578
H         3.97194988535632      -2.63038520562556      -0.05507078349106
H         4.64845772894707      -1.39538940005200      -1.92804724368451
H         2.98824292670995      -1.45888184796678      -2.57681914950131
H         1.87150030525818       1.36672904455375       1.55483154073377
H         3.56785815197254       1.55861976874904       0.99024888342312
H         2.22011818392041       2.35067063037075       0.08258155260105
H        -0.03808349905563      -0.54256851539329       0.96585081670168
H        -0.18193635365179       1.20294212352596       0.68070029096108
H        -1.46472591119119      -0.99303099021056      -1.04318363447519
H        -1.60141194172258       0.74789186116828      -1.34368517976804
H        -2.69030706912904       1.05053561608197       0.90271516467638
H        -2.55278157314818      -0.68844727114979       1.20382584333191
H        -4.12822833314963       0.59096300572541      -1.10385643625940
H        -3.98732550787431      -1.14781283550647      -0.80909405438169
H        -5.25563258785790       0.88412577940917       1.14201484834682
H        -6.15118019434001      -0.26402971685295       0.11822297324531
H        -5.11577209201018      -0.86490530453738       1.43531634782444
B         6.00126967169379       0.34542548477939       1.26724689606125
F         7.28532729769908       0.39776534006151       1.79298070946436
F         5.00651200664851       0.28794804962890       2.30773362770113
F         5.82049901180517      -0.80581773106632       0.42776706980747
F         5.71232338237732       1.51406390582045       0.46982140931422
