33
C7H16F2N2O4S2 optimized with DFTB in AMS.
N         0.99178531006428       0.37592954175550      -0.61352137409770
C         0.22880586561774       1.55635099938626      -1.14754042508599
C         0.14544475446181      -0.85789768602179      -0.67945770751897
C        -1.11379621916049       1.75045021894699      -0.45933557277871
C        -1.19567061265953      -0.69634799084996       0.02665066309250
C        -1.96876198791576       0.48885269988298      -0.54972034636268
C         1.46351567906847       0.63573408047344       0.77381612429673
C         2.19277707313950       0.15643196595800      -1.47002332110273
H         0.09037424377482       1.38834604112711      -2.21815147065425
H         0.85182588530806       2.43873077856565      -1.00467984229142
H         0.72252717008108      -1.67431540308041      -0.23820674018747
H        -0.01551291862162      -1.07159465835654      -1.73979185204768
H        -1.61654773505557       2.57966280767893      -0.96288730697805
H        -0.97208978570563       2.03482595849005       0.58690890716739
H        -1.04913939599932      -0.56511064009302       1.10229726635657
H        -1.75952288942887      -1.62097979467326      -0.12176754601606
H        -2.89835285913886       0.62709177436124       0.00691639956941
H        -2.22266179466496       0.28766052404762      -1.59527887423699
H         0.61371151492861       0.79102883035276       1.43261476332522
H         2.04272032664000      -0.22118920977368       1.11314380301061
H         2.08682602507299       1.52748604407160       0.76481225173030
H         1.87489311334329       0.00824473844191      -2.49982029654788
H         2.83170653888448       1.04009316294523      -1.41604883765773
H         2.72829148917083      -0.71956942913124      -1.10854814155594
N         3.46961963993533       2.93328404696490      -2.04660917255209
S         2.32239337918815       3.32388676146189      -3.08339750634534
S         3.66504825311220       3.87713727174577      -0.78461593777014
F         3.08559141370481       4.23157288915297      -4.16206175781100
F         2.29316960149952       3.52654664476707       0.09670979501867
O         1.98503421112826       2.12312178983413      -3.79432053023520
O         1.24871805495448       4.13519718574476      -2.60004910980102
O         3.59242684811950       5.28229557142435      -0.97827988283389
O         4.69853377905241       3.31174686249880       0.01563186970152
