48
C12H28F6NP optimized with ADF in AMS.
N         0.10570315861774       0.45524558067286      -0.02046186921278
C        -0.73796859125225       1.39343176047489       0.84125857154785
C        -0.75907042079901      -0.53621926803240      -0.77253902651839
C         1.05093731227569      -0.31305279065128       0.89805691921758
C         0.88827654980835       1.29496011336600      -1.02003483568253
C        -1.72487341445861       0.71827531918595       1.77839890828371
C        -1.83339328793268       0.05808071173042      -1.67082045775125
C         2.07885711222722      -1.19791973668800       0.21265810908890
C         1.95796460601129       2.19453372540703      -0.42401181970066
C        -2.35465547126589       1.78512916751974       2.67815888488729
C        -2.64398543642820      -1.06391751841689      -2.32364238814933
C         3.02396341617208      -1.75693381012339       1.28139628183101
C         2.60914725037319       3.01979335947328      -1.53349562136039
H        -1.25825482391452       2.06597200890591       0.14140281073100
H        -0.02526257392370       1.98471480591025       1.43211382580515
H        -1.21465912885936      -1.18398522758430      -0.00828744452530
H        -0.06909704399756      -1.15334498709496      -1.36674968071603
H         0.40753662299480      -0.91514699069961       1.55397905223153
H         1.54412145070875       0.43443094625462       1.53235512617372
H         0.14054165928366       1.89967025334052      -1.55402709652252
H         1.32793313524802       0.58733805733920      -1.74121175255661
H        -2.51141581891658       0.18472543847715       1.21656139937490
H        -1.20300066426249      -0.00728908344561       2.42053030798648
H        -2.50878110268318       0.70382582699301      -1.08670410428863
H        -1.37850248413523       0.68094129710044      -2.45766678165242
H         1.59928006007960      -2.03038821692855      -0.33030159139982
H         2.66802358435412      -0.61889555329542      -0.51726328622941
H         1.53252603973179       2.86384905964807       0.33784517376757
H         2.72573321608554       1.60078543097797       0.09324770845327
H        -3.09105851443886       1.32869683844422       3.35501780516281
H        -1.57896810355599       2.27042414363151       3.28838579213852
H        -2.87048001909500       2.55535874298943       2.08331281045384
H        -3.42022549797956      -0.64879142826139      -2.98317529619837
H        -2.00141173871593      -1.71901215818186      -2.93262967459505
H        -3.14455431439225      -1.68676600027197      -1.56646231485777
H         3.79225585024600      -2.39720287637552       0.82430490051775
H         3.52106685299933      -0.93962942968562       1.82479999151593
H         2.47243452634290      -2.35854627723239       2.01991508638340
H         3.38051541905515       3.67760582364992      -1.10734107841163
H         3.09278962739219       2.37710158459229      -2.28623825120418
H         1.87141079554960       3.65702771473403      -2.04633305200289
P         1.92930138117991       2.31839244815274       3.86472583389748
F         2.67350299637470       1.42271586146358       5.01357744918760
F         3.02682326210259       3.52078821704968       4.01191918781046
F         2.88210069883866       1.59559499188190       2.68038284540657
F         1.15352565682553       3.18511837817236       2.64165396341744
F         0.80365794298167       1.09213904472722       3.63818870530379
F         0.93774099094679       3.01432704600298       4.96904743036043
