54
C16H29F3N2O3S optimized with ForceField in AMS.
N         3.08371885074238       0.86443198004496       0.06524895954407
N         2.90591071410189      -1.35116537245939       0.16477086326433
C         1.53749112764665       2.78061629126299      -0.12529680508660
C         2.88401296036071       2.27085380932063       0.40944246870662
C         0.99217618654820      -2.69810207186649       0.96549008439406
C         2.49164642910220      -2.67520906588232       0.62834954886495
C         0.34825531023983       2.09047486153177       0.56037652589286
C         0.12211572911609      -2.33122621456175      -0.24696306145142
C        -0.98744174212981       2.56543938484125      -0.02113613306227
C        -1.36511044497204      -2.30676488193658       0.12238187147763
C         2.82988265211921      -0.19667614081022       0.85561979995121
C         3.34151435076398       0.36411081691246      -1.16027011597798
C         3.23831246797265      -1.01003395779597      -1.09694818629131
C        -2.16247792246612       1.89674824594621       0.70288814132442
C        -2.21222945070042      -1.81164106516167      -1.05641417039940
C        -3.49379929075808       2.25415972220510       0.05037447074309
C        -3.69160272358925      -1.75237530494115      -0.68878075528547
H         1.47833221378436       3.87439817351766       0.06215094926691
H         1.48987949128966       2.61657205156136      -1.22416091829339
H         0.79353392456275      -1.98878613197378       1.79834190118357
H         0.72186748539221      -3.71782868974670       1.31620678646806
H         3.70756074304364       2.87497277695294      -0.02881904257476
H         2.92278075544653       2.40309787259241       1.51315815651466
H         3.07682139260825      -2.94396558755670       1.53392625130769
H         2.70576139259273      -3.43837499675744      -0.15191814504936
H         0.37810174649569       2.30727448722471       1.65086398533383
H         0.41825038332140       0.99163331347855       0.41758236860845
H         0.29033182089185      -3.07111690623100      -1.06009126062805
H         0.41069351603952      -1.32619463170237      -0.62250656590615
H        -1.07047003963252       3.66937140896967       0.08585703842991
H        -1.02433420787836       2.30947125111977      -1.10326839219463
H        -1.51806048319827      -1.63040021484090       0.99190342282653
H        -1.68988984398278      -3.33065312869291       0.41084299655888
H         2.50719250397596      -0.12337608814653       1.88712350094875
H         3.52648923907864       0.95631764840794      -2.04706536668833
H         3.32247279674323      -1.70043520597810      -1.92620288064148
H        -2.04124115445877       0.79315484831284       0.68047484844747
H        -2.18010458183435       2.22380014079946       1.76533151204100
H        -2.08233713942111      -2.49467785803742      -1.92397648470203
H        -1.87902073903528      -0.79426222446467      -1.35804209326312
H        -3.64518918930700       3.35449791106016       0.05797658531525
H        -3.51968785728931       1.88489741977727      -0.99710108031719
H        -4.32266555178094       1.77620279219837       0.61403496785047
H        -4.27456829987443      -1.37802325574276      -1.55654554520870
H        -3.85022555481726      -1.06321494986167       0.16783690281479
H        -4.06259392956469      -2.76421356748115      -0.42003525809676
S         0.61873415826090       7.00128543702172      -2.08384181043828
O         0.32714835461245       5.52219598215625      -1.79278986676084
O         2.13525957072380       7.01635512485656      -2.32705554184687
O         0.47897400125123       7.66230629458680      -0.70444874657904
C        -0.38696615977048       7.73699537339372      -3.40339906349619
F        -1.72378183956453       7.65622715242269      -3.06352383134676
F        -0.17093124483437       7.05215680728091      -4.58383671862186
F        -0.03393964676841       9.06243176497249      -3.56950023307122
