43
C13H27NO2 optimized with DFTB in AMS.
N         2.27389816015087       0.03967383533460      -0.33304353448849
C         2.46592409717643      -1.14955012516342       0.55847707906040
C         3.29002754669864      -0.11474069689202      -1.44703645627773
C         0.90067569455898       0.08847653169549      -0.91904331315740
C         3.95441528868056      -1.44684746005539       0.47133873362602
C         4.28801257732483      -1.17950571165795      -0.99479828326850
C         2.56959623348677       1.28854593640891       0.42382448674332
C        -0.21791090930283       0.19940922259037       0.11578402055185
C        -1.57833757555025       0.12569443196454      -0.58748446916712
C        -2.72523658194104       0.24658579046140       0.42046864286555
C        -4.08664947697307       0.17396863102961      -0.27827308124398
C        -5.23294597579458       0.29473845724300       0.72417972159101
H         1.87496960463394      -1.97660594082289       0.15486762781557
H         2.12258055626140      -0.91156901377644       1.56528716990360
H         3.76864127851757       0.86499612223446      -1.58914857246467
H         2.76808970505138      -0.40994211841383      -2.35874150119853
H         0.76793968650911      -0.82350716379502      -1.50814519480921
H         0.87539950474289       0.94877868309997      -1.59310946753006
H         4.16872141317062      -2.47379922742941       0.76923961781470
H         4.52158646791652      -0.76034730351133       1.10394853648449
H         5.30881814635870      -0.80892497250085      -1.09083288118306
H         4.17536221649054      -2.08827367237596      -1.59282431740661
H         1.90155885801124       1.36797700550438       1.27856458343474
H         3.61177272758949       1.24150091452910       0.74872423334325
H         2.45321747414148       2.13831802532422      -0.24491751983482
H        -0.14182470629275      -0.61305509048533       0.84384825990246
H        -0.14491064772494       1.14718429197226       0.65496100879386
H        -1.66026125546508      -0.82556016759878      -1.12437549737890
H        -1.65044610871581       0.93303012227198      -1.32386531047004
H        -2.63903867358662       1.19785046744680       0.95645852310962
H        -2.64808102127771      -0.56018434500934       1.15747822161753
H        -4.16028566119325       0.98080877096934      -1.01518635882940
H        -4.16982201567928      -0.77746078874916      -0.81452194721805
H        -5.17838108233895       1.24643045914885       1.25445231934213
H        -6.18983852601726       0.24067294355537       0.20485218797698
H        -5.18811240205619      -0.51330658703143       1.45566831315795
C         6.91537566376290       2.88919884103796      -0.55279583731489
C         5.58275880706276       2.11221513734080      -0.45529616063621
O         5.56369086662298       1.13557721427780       0.32842593161603
O         4.63457400089779       2.51152599171357      -1.16541145618212
H         7.20283421894664       3.22908525850941       0.44124036087816
H         7.68817166198455       2.21803964713372      -0.92569131045685
H         6.81206609066008       3.74137536267065      -1.22146666581259
