46
C14H29NO2 optimized with DFTB in AMS.
N        -0.92407983967406       0.28894546824045       0.47700893465233
C        -1.30847422777731      -0.16081530030201      -0.89599747405982
C        -2.12332607884164      -0.08042015452460       1.28591165996111
C         0.30145685326909      -0.42590381458141       0.98895013134358
C        -2.79925526262702       0.15824537177427      -1.02610667335489
C        -3.30923771268085       0.31894180040019       0.41598827760080
C        -0.69709846132031       1.78388660133527       0.45062410900027
C         1.39876727906745      -0.59786290541516      -0.05763040430929
C        -0.78439698230260       2.46478755305031       1.80597210160989
C         2.68550525629746      -1.06136150965719       0.63618001306717
C         3.85536812827031      -1.06317399528741      -0.35070335047352
C         5.16074506730140      -1.46635993817923       0.34162839480075
C         6.33440210716927      -1.46044230379221      -0.63664086739556
H        -1.13663326074859      -1.23742877834525      -0.95798616030516
H        -0.68942364795712       0.35015877229658      -1.63256381987094
H        -2.09225264362064       0.41159618801967       2.25588522094987
H        -2.10460618960889      -1.16311436573052       1.43331188512540
H        -0.01976103685699      -1.40154848552655       1.36463462275191
H         0.68814214071511       0.17581578793573       1.81564608817338
H        -3.31164122045097      -0.65632522334768      -1.54124334756259
H        -2.95752184041753       1.07358361696420      -1.59899725247334
H        -3.60334889649706       1.35215957509396       0.61055009322400
H        -4.16639084901437      -0.32496264337334       0.61827162595271
H         0.31371529367676       1.94073389307737       0.03707551581508
H        -1.43439191059513       2.21325149682854      -0.23083878200610
H         1.10281717611974      -1.33082642371957      -0.81531243370514
H         1.59273327144752       0.35803550647279      -0.55106159365057
H        -0.40675855301228       3.47825511254610       1.67458654589376
H        -1.80686556098159       2.52321951404490       2.18144443882250
H        -0.14639244013975       1.97172411213912       2.53625458109456
H         2.54322185599861      -2.06468623394920       1.05427903493705
H         2.90852389352762      -0.37653304044825       1.45966264478286
H         3.96464670338687      -0.06059807973423      -0.77663306623759
H         3.64532768634288      -1.75664509994619      -1.17338614869965
H         5.36686224713256      -0.76804188194420       1.15935608178636
H         5.05255663505295      -2.46710025409548       0.77489558481485
H         6.47562016987159      -0.46333147862510      -1.05598646551287
H         7.25132116519949      -1.75489089598375      -0.12495094856487
H         6.15446380682033      -2.15832357654097      -1.45611806925730
C         3.91936666852475       3.11862589454170       1.16433620056537
C         2.58402856041637       2.37468719929093       0.92911885292156
O         2.08425318144981       1.78970179400418       1.91488526655771
O         2.12556273498823       2.40540758617664      -0.23464252007763
H         3.95466516808668       4.02195532501390       0.55826302679790
H         4.03496434904792       3.36402320899424       2.21838222973009
H         4.73317555584396       2.46000489180841       0.86034603818397
