29
C9H17ClN2 optimized with DFTB in AMS.
N         1.06328126955241       0.22145950256074       0.00953679941792
N        -1.01661087013764       0.35765357768126      -0.55673763026520
C         2.20260151016698      -0.19111138253314       0.82677569590449
C        -2.44398634554596       0.07993065952141      -0.67066673394468
C        -0.12368318049159      -0.38426296153762       0.10131560174380
C         3.54039113572921       0.18278037763705       0.20132383867144
C        -3.19038585611055       0.41831071921329       0.63232251314808
C         0.89134807222868       1.43906172370486      -0.60098586012215
C        -0.41173272959845       1.52093639220504      -0.96475932835357
C         3.74369821514447      -0.48215283609739      -1.15961385615159
C        -3.43257221795673      -0.81314480235549       1.50089151716785
H         2.12921200194838      -1.27401126852296       0.95864524371166
H         2.06443026840018       0.28732733575406       1.80447798888819
H        -2.56462494386773      -0.97571495948905      -0.93311636042494
H        -2.81928429563573       0.68770453510958      -1.49825022570707
H        -0.29457729498108      -1.37086213604557       0.49021312440014
H         3.61905650999045       1.26890724047374       0.10061537484529
H         4.32593300248554      -0.14368992020502       0.88869028910416
H        -2.61114991468875       1.15242852615756       1.19764772638132
H        -4.15045372434961       0.87001929072959       0.36497359895064
H         1.69713594236940       2.13776132911506      -0.73922623585734
H        -0.95090182616947       2.29383446514664      -1.48376358537068
H         2.96360876542789      -0.17450864787568      -1.85726156692262
H         3.71268561771902      -1.56806300446171      -1.06182010715194
H         4.71107845304975      -0.19724259563851      -1.57234690345389
H        -2.48815798728157      -1.21726620020171       1.86298802017505
H        -3.96184493671260      -1.58429886081050       0.93822535553129
H        -4.03579805261197      -0.53086724143464       2.36332656170317
Cl       -0.40714036977292       0.26506620399911       2.57233097768115
