44
C12H24F3NO3S optimized with ADF in AMS.
N        -0.41510870415462       0.00022608832417       0.00146339825264
C        -1.51534890206622       0.64765619510471      -0.81435089356398
C        -0.79141840874546      -1.44080969493597       0.29159343548161
C         0.84795865975575       0.01933341430179      -0.84946067130476
C        -0.20742208322295       0.72844919821875       1.32841234898141
C        -2.88568121277654       0.54970598243498      -0.16415150212162
C        -2.14995126665175      -1.57423565369647       0.95988540112949
C        -3.24936654158253      -0.90349937464456       0.13855135119971
C         2.05713942537278      -0.63477070069848      -0.21229928320951
C         0.38617028564062       2.11314060339154       1.22554600864560
C         3.34109045326254      -0.27809096636529      -0.96672829255174
C         4.56318079271512      -0.86284976026123      -0.26093942079949
H        -1.51739330722060       0.12323159095852      -1.78351146229613
H        -1.21158237634682       1.68913644749918      -0.98897657401264
H         0.00588173115895      -1.85309320891706       0.92173997832245
H        -0.78511747848807      -1.95455399611243      -0.68443747443204
H         1.04412031283606       1.08026925234291      -1.06489720190485
H         0.56884043144951      -0.46907001966328      -1.79770570204489
H        -1.18944907583458       0.76068150504727       1.81236747828212
H         0.42924068873817       0.09598719741952       1.95940588110369
H        -3.61158936812271       0.99767432900520      -0.86299772172902
H        -2.92324250133518       1.15971013699387       0.75316154843083
H        -2.11071515857616      -1.16497977898878       1.98231744253330
H        -2.35019969641192      -2.65261675579977       1.07101246782396
H        -4.21215122641416      -0.95336328668789       0.67055565465418
H        -3.37842281219989      -1.44959578076704      -0.81472481267250
H         1.94382058319840      -1.73149904779422      -0.19321140745736
H         2.18148273903735      -0.29734075562265       0.82995349145205
H         0.43538965010058       2.49443341120746       2.25707209383153
H         1.42199364127285       2.09468565785615       0.86273954514150
H        -0.21879795278671       2.81424418196317       0.62994015109356
H         3.43829980890854       0.82271022929944      -1.01136070070841
H         3.29051046442202      -0.63600738942206      -2.01235015405062
H         4.49993171255700      -1.96161442393866      -0.21172644090164
H         4.62087972312208      -0.48636941455078       0.77208211753618
H         5.49156053649720      -0.59707112710932      -0.78762458580066
S         2.30538337135251      -0.13005391224330       3.90099010592894
O         0.84418810359010       0.01057643745960       4.07992980180964
O         3.14513012010502       0.12596177414579       5.06769846135864
O         2.80005346213269       0.41784058435119       2.61367853735629
C         2.48283963845810      -1.98445814285477       3.62748570523157
F         1.61184203356768      -2.42237787297471       2.64206294187430
F         2.19674723427768      -2.69170190714275       4.74712115434373
F         3.73287189220757      -2.32836278693371       3.22002890986293
