55
C15H32F6NP optimized with DFTB in AMS.
N        -1.19057020094337       0.70786110933627      -0.29117338554552
C        -1.66626143911527       1.78902889870534       0.63309886556200
C        -2.19560822267517       0.56164944791229      -1.40238753603724
C         0.09497240404606       1.14351083981644      -0.94563840186620
C        -1.00565957310071      -0.56964169895760       0.48778320005766
C        -3.06781415047648       1.53233166399208       1.18030318213492
C        -3.59785372544470       0.25417605257514      -0.90447909079486
C        -4.08099491752512       1.34242078372614       0.05155110430698
C         1.28003652101661       1.32312940514885      -0.00178520072466
C        -0.36360678985466      -1.72015424200146      -0.28171185725573
C         2.51364986646521       1.71470743707690      -0.82586401632396
C        -0.32017892191410      -2.96791837600008       0.60666266119101
C         3.74136784227401       1.89361192790421       0.07214730261357
C         0.28282049144023      -4.14524131010940      -0.16743000606196
C         4.97305039633950       2.27556739489170      -0.74648560598470
C         0.30456550447831      -5.41447856619436       0.68039379621614
H        -1.65474377714506       2.72275106547109       0.06368725635462
H        -0.95230924377376       1.86835776972887       1.45530749847337
H        -1.84570847122859      -0.22210184516623      -2.06999619787018
H        -2.19533248042404       1.51046796754417      -1.94585679014504
H        -0.11864446245643       2.08892845611142      -1.45124080721357
H         0.32872674624014       0.39677230683312      -1.70632933080875
H        -1.99263133895964      -0.87814367548330       0.83589396924794
H        -0.40519908258205      -0.31739114923454       1.36641636772859
H        -3.34325094216722       2.40025878556001       1.78575780985896
H        -3.06637064161873       0.65878471937518       1.83749847365142
H        -3.63425519843920      -0.72564063091823      -0.42255082323219
H        -4.24737817065684       0.21135613471322      -1.78204789544856
H        -4.19947570635817       2.28432714634237      -0.49393186433573
H        -5.05084338890071       1.06921710323504       0.47338102423859
H         1.07448788650412       2.10406900540312       0.73645021106431
H         1.49323492868253       0.39593683149274       0.53515373996816
H        -0.93935462175480      -1.94835857011621      -1.17688400753788
H         0.65209839708705      -1.46377583082715      -0.58920246119710
H         2.31161534156784       2.64699610989625      -1.36350743468873
H         2.71265934046709       0.93574486361510      -1.56844839356297
H         0.27551645169168      -2.76541328869650       1.50451305364097
H        -1.33636131074037      -3.22143009175373       0.92879498308071
H         3.93602376952707       0.96011017991385       0.61070139200121
H         3.53915157088930       2.67290781171487       0.81502103138078
H         1.30232865343124      -3.89130853459257      -0.47445888514395
H        -0.30476327514776      -4.31758913558607      -1.07386738436684
H         5.83409955616496       2.39599728351971      -0.08918188574055
H         5.19972356753090       1.50006669932940      -1.47885544635635
H         4.80451880184975       3.21449829491793      -1.27530711223012
H         0.73834593504880      -6.23463379437715       0.10842919482824
H         0.90115608001858      -5.26608134793122       1.58233496442944
H        -0.70744458795189      -5.69521413969703       0.97617189233195
P        -1.07430607161236      -2.07418180057552      -4.04384952267320
F        -1.94106789976394      -3.16087045520117      -4.88143281277635
F        -0.31169449614899      -3.26468979858612      -3.19699802900382
F         0.10812878267402      -2.06077716090720      -5.16007792573303
F        -0.19788813613640      -0.93574468717242      -3.13069461544295
F        -1.84063932101944      -0.81885162034597      -4.77649306031502
F        -2.25985155969908      -2.04678025997162      -2.84611131954388
