35
C9H20BF4N optimized with DFTB in AMS.
N        -0.00559053989829       0.08799541463876       0.21468851661648
C        -0.23635568739588      -0.74161336074673      -1.01330223149105
C        -1.31815954646671       0.02029520407647       0.93164275529261
C        -1.66697007608717      -0.43267803862988      -1.43920570095497
C        -2.38493031325700       0.03365342241822      -0.16228243470178
C         1.07276578459172      -0.50659683542941       1.07322608020511
C         0.29376052440903       1.50532071980162      -0.20024019118489
C         2.44666568372410      -0.53914821249537       0.40992967528549
C         0.71993524619223       2.42122440178413       0.93434628152176
C         3.44365330997283      -1.25190797763038       1.31987729868814
H        -0.12772394076108      -1.79092569793441      -0.72991224982902
H         0.50330930081824      -0.48169118287154      -1.77218826352713
H        -1.40004261100263       0.85339829171907       1.62914558030528
H        -1.34560860482666      -0.91780541035445       1.49067028743088
H        -2.13570444880341      -1.32306667259760      -1.86110707910679
H        -1.68307088447990       0.35111758604981      -2.19884535465356
H        -2.79740351245760       1.03609151716461      -0.29155145150889
H        -3.20323478364556      -0.63655442894500       0.10669919470727
H         0.74866031288322      -1.52360657175215       1.31578685619743
H         1.10078162114308       0.07133183172089       2.00055538032598
H         1.08769098825458       1.46321940142899      -0.94875311305465
H        -0.61253971332541       1.88895836170413      -0.67269490862471
H         2.39538323339620      -1.05964329605759      -0.54773717616268
H         2.80365271096151       0.47271970432371       0.21611992069013
H         0.01144922766548       2.42225231521165       1.76272085586817
H         1.70904525617427       2.15880785125393       1.30406859309311
H         0.77650407618859       3.43021972315283       0.52636851165692
H         3.51388571287803      -0.75079478262069       2.28655431004225
H         3.15144427030109      -2.29063895656728       1.48335466970255
H         4.42400404775727      -1.23537733424332       0.84588328098898
B         3.19322658874202       1.12311700636339      -2.29832088781909
F         1.89942891802280       0.54760962565709      -2.57277610259697
F         3.67615635226935       1.75372906313301      -3.40925821393670
F         4.02170142619398       0.09850236445878      -1.84911560119460
F         2.98289557696767       2.04159624861472      -1.23149104587107
