58
C16H22F18NP optimized with ForceField in AMS.
N        -0.87721709537409      -0.16075143109686       0.03131130054966
C        -2.01636136610608      -0.26674737624662      -0.93148183881747
C        -1.20193673101713       1.02439437461309       0.88396715499490
C         0.39421511297061       0.07755064426046      -0.72740089078277
C        -2.84183606316924       1.00060958968719      -0.83038756239674
C        -2.62837749665215       1.44684171640695       0.58795943696694
C        -0.80811963691482      -1.38816999781996       0.88885138561471
C         1.65919806635570       0.18257647353417       0.15811922889497
C        -0.45831657734881      -2.67994508606219       0.12789064174086
C         2.87028020307625       0.62575244947172      -0.67124030783107
C         4.12612399765622       0.71936963090574       0.19112089085342
H        -2.69663876731477      -1.11485303853364      -0.68732542719180
H        -1.69021010311385      -0.41768116320013      -1.98466995520994
H        -1.08592119042852       0.82815800285595       1.97441441165361
H        -0.55345335429406       1.90055693561948       0.65231492533800
H         0.55999246250539      -0.73025162004027      -1.47455503274389
H         0.29949020066015       1.01564138759600      -1.32274418321901
H        -2.44442874613157       1.76711087288133      -1.53219891812612
H        -3.91701939038997       0.81587466910080      -1.04493053383690
H        -3.33027857064104       0.90895753568533       1.26334489625048
H        -2.76953045733479       2.54434308574600       0.69684460986249
H        -0.06625312467412      -1.25805712443127       1.70689847152600
H        -1.78517680911227      -1.54745836423604       1.40071764932088
H         1.50265214679146       0.90987775521047       0.98210934471251
H         1.89017216102653      -0.80580209026193       0.60750579573148
H        -0.58222702795159      -3.54746029308018       0.81005343906537
H         0.59766578090622      -2.67235241716240      -0.21021243628941
H        -1.12072803014525      -2.83367377604583      -0.74763085659462
H         3.04996250824669      -0.10412509950644      -1.49090230225277
H         2.67213543467057       1.62197765160720      -1.12334228153432
H         4.36059656001061      -0.26888757173577       0.64084557726699
H         3.98258572277167       1.46631088967150       1.00099513584700
H         4.98500385152882       1.03691103313153      -0.43658911244641
P         0.72953340102954      -3.65895649642845      -6.08184225720551
F        -0.13766172614396      -4.62429458554222      -7.21327299915899
F         0.38910875546235      -4.11518953778671      -4.45452117197919
F         1.45027649727149      -3.23531718068340      -7.58551158169815
C         1.66606907461480      -5.34889667903353      -5.91490277841030
C        -1.06279094064665      -2.93055583284591      -6.15406191780351
C         1.79542316824845      -2.12275622143840      -5.59074278646341
C         2.32413033114029      -5.93667757934087      -7.19292125198150
C        -1.40729903900476      -1.80895463302384      -5.15122456808847
C         3.32192536206075      -2.32197248522519      -5.50863646034411
F         0.77622085259828      -6.31414746321663      -5.45892520151248
F         2.65474696574155      -5.23632977425588      -4.95789832824837
F        -1.98933540484344      -3.94265620403274      -5.91863593834934
F        -1.28758654108046      -2.42311112030791      -7.42609117221683
F         1.40418679850144      -1.69568632758394      -4.33423098535006
F         1.55016251431293      -1.08064352017697      -6.47476816821561
F         3.06375200733891      -7.05075652302144      -6.83646443387157
F         3.18014369039551      -5.04489919303878      -7.80248601838984
F         1.37391756239870      -6.34537795503248      -8.11176480098478
F        -2.76258019921854      -1.54003672150971      -5.23528908405188
F        -1.13438118237417      -2.19067592455332      -3.85136764864775
F        -0.73747630280488      -0.63879567210247      -5.44782494863989
F         3.66112579188215      -3.05499676422103      -4.38747323005965
F         3.92772460099482      -1.08339556438047      -5.39169950034781
F         3.82802947256211      -2.93133233184308      -6.63528775839801
