49
C15H32ClN optimized with ADF in AMS.
N        -1.03051103743755       0.75424140327855      -0.22184532537392
C        -1.53324953100596       1.86254186183629       0.67695617169756
C        -1.98972122201172       0.59373353254323      -1.39425899064476
C         0.31305211661309       1.14605734800378      -0.82673195688200
C        -0.91071504269706      -0.52425580768104       0.59102135999209
C        -2.96654026486677       1.65408263401012       1.14883784544380
C        -3.41323222516072       0.33171958629486      -0.94520447192329
C        -3.91981475849502       1.44906384273711      -0.02998076323759
C         1.47035964057518       1.21914058563566       0.14913662341116
C        -0.36210833063911      -1.72348750106324      -0.15308309146176
C         2.72938919262521       1.67421869380221      -0.59426825508181
C        -0.26429562408483      -2.92789403274580       0.78269481499928
C         3.95570394933974       1.74291425081633       0.31314376584582
C         0.28367367403073      -4.16224816056573       0.06615152873655
C         5.20925136807012       2.19066237748504      -0.43467236283705
C         0.39758051734045      -5.37447850361712       0.98617911886773
H        -1.45993468099884       2.78358832899948       0.07767818719318
H        -0.83658307078036       1.94230398968539       1.52290167074013
H        -1.54198723117311      -0.16644622067967      -2.07530430488221
H        -1.93285514567161       1.55440394057032      -1.93335929531442
H         0.13624058310069       2.13012193974215      -1.29153556976767
H         0.49180072063579       0.41940956791150      -1.65995458466577
H        -1.91360967324812      -0.74289308478683       0.97929290275185
H        -0.27749643323592      -0.26589193005478       1.45510312490042
H        -3.25084901131703       2.54473319135840       1.73366521775891
H        -3.02273056680007       0.80043268677211       1.84461370579242
H        -3.49594808921299      -0.65019633560488      -0.44814716668329
H        -4.03009409642104       0.26346913708417      -1.85567068847352
H        -3.97564989004789       2.38722129082001      -0.61208433575344
H        -4.93701810839199       1.23576327377801       0.33458326989796
H         1.27332957453904       1.91979484191208       0.98154893206525
H         1.66831737983743       0.22853921976236       0.59198171210133
H        -0.98573776640415      -1.96663293373866      -1.02841869692631
H         0.62242970996665      -1.50516256195027      -0.59482844292513
H         2.55248615842576       2.66828108693185      -1.04594199179496
H         2.91744613406142       0.97991780684338      -1.43265743272873
H         0.38912710771778      -2.68764045257385       1.64449968766684
H        -1.26028509940883      -3.16463660436915       1.20546923369718
H         4.12866341844527       0.74911241120362       0.76496234087417
H         3.75401790794796       2.43577983816889       1.15120948686561
H         1.27047887104911      -3.91933322313171      -0.36507705343060
H        -0.36718883172289      -4.39706936972884      -0.79415324776273
H         6.08378702552984       2.23066789613134       0.23152100477074
H         5.44071414124041       1.49775477968540      -1.25906461472889
H         5.06936697870021       3.19239242150552      -0.87187083039855
H         0.79111790322396      -6.24924381959824       0.44765010624146
H         1.07311688074471      -5.16815725326969       1.83277879476008
H        -0.58507195351211      -5.64962722774985       1.40333807335092
Cl        0.16804971788513      -0.98671398389977      -3.35696272954406
