47
C13H28BF4N optimized with DFTB in AMS.
N        -1.32186459977846       0.01232265428182      -0.12086043734202
C        -2.28411077381027       0.19738167525544      -1.26148944652321
C        -1.43566858187530      -1.40392765965452       0.37641234945474
C         0.05560486049613       0.23833197156574      -0.69830960381466
C        -1.57889403080772       0.95207482801063       1.02008189973404
C        -3.72211748776647      -0.11820588030045      -0.87880759521194
C        -2.86024129252486      -1.80908566452291       0.73916308008856
C        -3.82606037542062      -1.57031114215207      -0.41864300424363
C         1.22199369426283      -0.17384550101679       0.19238836182904
C        -1.64857954127342       2.42689305632024       0.64971180712171
C         2.52613906200412       0.06934663663243      -0.57745946643798
C         3.74309562129377      -0.31444184413270       0.26838356239931
C         5.04521488660472      -0.09930822891484      -0.50936210940125
C         6.26427600203655      -0.48001109506021       0.32903815289978
H        -1.95607579818724      -0.48799445966916      -2.04758728929869
H        -2.18083903279903       1.22179696895940      -1.62275775313959
H        -0.79296692505032      -1.49807273803580       1.25336937661963
H        -1.05678260505122      -2.04247597968384      -0.42418279837949
H         0.12647392343338       1.29833365484568      -0.95115249260439
H         0.10161090730498      -0.33688262212008      -1.62429537137180
H        -2.52115373920250       0.65805677322955       1.48530472825244
H        -0.77753158079094       0.78992856936667       1.74499209885908
H        -4.33731992170958       0.03458679734521      -1.76930587623386
H        -4.08463467705106       0.56185282299789      -0.10121608879450
H        -3.20289620848368      -1.27864152419779       1.63402372517127
H        -2.83203809162420      -2.87506339588029       0.98026116804418
H        -4.84770967514307      -1.79268577889154      -0.10146441461771
H        -3.56490256549294      -2.23114052633951      -1.24947001291625
H         1.23118040698750       0.39190916139709       1.12961998933916
H         1.15803913687144      -1.23864735792546       0.42582435872244
H        -0.74025988871035       2.77134410413587       0.15936266622936
H        -2.50124652279564       2.64004848118433       0.00762437799457
H        -1.77022915708014       2.99131019493456       1.57433582521427
H         2.59449331662742       1.12418173754045      -0.86535893941392
H         2.51090198859085      -0.53187762523006      -1.49169009739775
H         3.66324085359911      -1.36629365380358       0.56251627330542
H         3.75852860799792       0.28832249974298       1.18374110360875
H         5.02709922577334      -0.70516638027280      -1.42106135492191
H         5.12208859818433       0.95196709396213      -0.80762418991414
H         6.21564454832164      -1.53057755597724       0.61871522433423
H         7.17738341336167      -0.32005594653920      -0.24474441543957
H         6.31174819775312       0.12744725353052       1.23422729249288
B        -0.44034245499988      -2.44573150156975      -2.84730264509175
F        -0.09982279232029      -3.36524258027497      -3.79028986136862
F        -0.46695428336328      -1.12730670666162      -3.36863163619334
F         0.47204404875739      -2.44161401179532      -1.75650800621793
F        -1.72997806904974      -2.69261321971610      -2.30405489282494
