34
C10H18F3NO2 optimized with ForceField in AMS.
N         0.42017029461101       0.23409969955136       0.04654551507584
C        -0.52742549793072       1.27678100788297      -0.46078078877691
C        -0.08778203883794      -1.13228781572451      -0.28639348726357
C        -1.99015870240332       1.07194281953925      -0.02348044742658
C        -1.53189395284112      -1.38134121727851       0.18266627568378
C         1.72852497830580       0.47159125813961      -0.64792520812489
C        -2.47561214641704      -0.32742761012535      -0.38562535481712
C         0.60602788015795       0.38794031051331       1.51549179441108
C         2.87930882669604      -0.46821849729211      -0.24378820098340
H        -0.52375168711157       1.29102059638119      -1.57586185780813
H        -0.20467293760398       2.29098948756912      -0.13128543522091
H         0.54721845772433      -1.91647222493982       0.17973685749254
H        -0.05288762848933      -1.29856804664409      -1.38775519393663
H        -2.62819311440456       1.81804304805196      -0.54467769501153
H        -2.11504965941812       1.25334855345965       1.06393976986941
H        -1.58850837060339      -1.38693510307186       1.29188706216438
H        -1.85875419405068      -2.38436466056794      -0.16730776755739
H         1.60303261287475       0.37709862409390      -1.75134954693816
H         2.07569576393414       1.51485605671688      -0.46446283997030
H        -3.49741226081565      -0.48354676101182       0.02237726401885
H        -2.52662913166530      -0.43009303093177      -1.49195910808058
H        -0.35477882860740       0.39758714584345       2.06488600817292
H         1.18879667451731      -0.45545496712588       1.94318327449725
H         1.13295063942517       1.33838681879603       1.75523291666672
H         3.78913722419422      -0.17592975074510      -0.80712795791441
H         3.12776791619845      -0.37853377065779       0.83230662117573
H         2.65645174516420      -1.52317735950731      -0.50079869060644
C         3.59657784263731      -2.16856101337561      -4.36492173866955
O         2.97730757814428      -1.11643580831652      -4.36859523971734
O         3.21327473447678      -3.09655182160439      -5.05895114660417
C         4.82155783062017      -2.32842033405919      -3.51378856280137
F         4.61774277089770      -3.34350088666428      -2.59776910140820
F         5.09944854754862      -1.15628350738106      -2.83383157064415
F         5.90273121757192      -2.64813696211376      -4.31354241544680
