26
C8H11F3N2O2 optimized with ADF in AMS.
N        -0.47853378597586       0.32712305019502      -0.19786558904689
N         1.65478437364433       0.12877488827625       0.16198763762823
C        -1.92725296627019       0.09783402187273      -0.07445693682291
C         0.46995366304671      -0.47829765188779       0.30181179926975
C         0.11720132176480       1.49070719199156      -0.63350160433938
C         1.45695261655664       1.36512208668167      -0.41092695944026
C        -2.39482183354860       0.33949108977971       1.35238550542467
C         2.90827761126041      -0.30645913401497       0.77037840367914
H        -2.40601480511554       0.78850760640204      -0.78306661641296
H        -2.13171876009485      -0.92659709248865      -0.42231713898888
H         0.30449634851554      -1.43819303857359       0.77115099858383
H        -0.46191603491039       2.32733500377402      -0.99939041776581
H         2.26498128892811       2.07363777852503      -0.52904045035673
H        -1.97968811386571      -0.41718096033701       2.03430074541352
H        -3.49224793173814       0.28293579697724       1.39703512205239
H        -2.04405637825040       1.32387895807464       1.70240423491177
H         2.78873615940045      -1.33157290261829       1.13661338583082
H         3.70935275799295      -0.26694315011043       0.02158061239748
H         3.09623397074939       0.38680183322804       1.60738940260989
C         0.78119007329383       2.05896095102656       2.52188672009282
O         2.00199225775459       2.14320756699303       2.23577060648842
O        -0.22895428240299       2.58498048935920       2.00410697835461
C         0.49623176712822       1.06528307467588       3.71181371557776
F        -0.77647500735073       1.11354210969832       4.20010590488785
F         1.33562249655057       1.24460974796716       4.76902240581061
F         0.68513500613684      -0.25770798376739       3.28946151226025
