58
C16H22F18NP optimized with ForceField in AMS.
N        -0.51558491130151       0.01052222800661       0.00207725522393
C        -1.44045142127824      -0.55686330386199      -1.02743339907950
C        -1.41282624775453       0.61023954869508       1.03735804795218
C        -2.84302843583885      -0.06458294114582      -0.72677752153195
C        -2.83017063379879       0.14874065691223       0.75971130120999
C         0.33477932337416       1.07441569057743      -0.62525119499898
C         0.30030679055490      -1.08281559354094       0.62502249885466
C         1.35474888717473       1.72917528054397       0.33659241895155
C         1.29655034352421      -1.76902173298597      -0.33977916492967
C         2.05786966011854       2.90663506099995      -0.33256382200674
C         1.95849369325539      -2.97289072557936       0.32469473576844
H        -1.16086702458588      -0.28379546896107      -2.07060633187722
H        -1.47630404769232      -1.67017473963131      -0.99390115022579
H        -1.12533075391977       0.34235145717802       2.07959824571727
H        -1.42313092587146       1.72373392623800       0.99108626902801
H        -3.02127092998235       0.90420638742980      -1.24278508182247
H        -3.61859194582352      -0.80152107306058      -1.02927324495285
H        -3.02402498517746      -0.81420096381149       1.28219933497107
H        -3.58369542864153       0.90452752531541       1.07133758151531
H         0.89007821946719       0.66612288246622      -1.49836015872501
H        -0.32053882576947       1.87435263087729      -1.04267260538198
H         0.87129126520874      -0.69538837547272       1.49756132606365
H        -0.38038673920466      -1.86132567490475       1.04219880169263
H         0.85451561056877       2.09592351999209       1.25678739506591
H         2.13360231633676       0.99693530320072       0.63364760258728
H         2.10060184709527      -1.06313456131967      -0.63357008138319
H         0.78399954967409      -2.11410956182134      -1.26153479066648
H         2.60556721502908       2.56431372702609      -1.23646990195161
H         1.31987180607610       3.68449306764666      -0.62262414783344
H         2.78656301397574       3.35595009605171       0.37482455308402
H         2.51567271645165      -2.65385133966803       1.23135723762321
H         1.19428038507993      -3.72698374419765       0.60957455937090
H         2.67314365464853      -3.44294510825912      -0.38353849248114
P        -7.01682927919892       2.35660505137413      -5.38993561250818
F        -6.34640070273880       2.75629606695115      -6.92454451746739
F        -6.96424963484523       3.69408683880238      -4.30323640903806
F        -7.44789635312199       1.00364883652692      -6.36153651763413
C        -8.39213459573340       3.52256255451851      -6.10386641587013
C        -5.09413888856595       2.24203577735010      -5.19198292198722
C        -7.66277944005865       1.10722214367858      -4.06315031153668
C        -9.06569046914715       3.10620234413069      -7.43995850383954
C        -4.54615164282424       1.97353730212800      -3.77449629264286
C        -9.18662180817225       0.88922674059277      -3.98419875415024
F        -7.84670348909208       4.78230646937621      -6.32005728535157
F        -9.39572516532531       3.68049585520199      -5.16921967208246
F        -4.51049575268070       3.43790128102981      -5.60130628992380
F        -4.62003291613438       1.22504852339425      -6.00891167258605
F        -7.28222612050031       1.55549941124725      -2.81106879839957
F        -7.06694227459921      -0.13198096514408      -4.25505430933002
F       -10.11121667875661       3.97553993673151      -7.69764095758798
F        -9.58581146302746       1.83070390636617      -7.39230596377362
F        -8.18328214100791       3.19069045550137      -8.50208431685604
F        -3.16711866304630       2.09160801860000      -3.80326919796382
F        -5.02755687043828       2.89179398180547      -2.86022199516197
F        -4.84047188297581       0.69237691234383      -3.35316238958704
F        -9.81171500281745       1.98798026210515      -3.42600194856218
F        -9.44013054245008      -0.19311047139686      -3.16015560311289
F        -9.73620849991495       0.61506855804921      -5.21681845937856
