64
C18H26F18NP optimized with ForceField in AMS.
N        -0.74762576571510       0.34585578155157      -0.14323453867625
C        -1.31586318862826      -0.42414015444926      -1.29783908673136
C        -1.87517329858575       0.78178438058104       0.74498759214691
C         0.22866462242422      -0.47778655849363       0.65372155240940
C        -0.09580374359616       1.57059493832031      -0.72474505756713
C        -2.19249217738501      -1.61929732974381      -0.88652704233917
C        -2.79290071039511      -0.36889842271525       1.20579182873919
C        -3.33165814286520      -1.15987700731315       0.01767160792860
C         1.50778375465148      -0.91826365482937      -0.09895765612294
C         0.64481593341663       2.48299867362187       0.28471866235592
C         2.43997866230295      -1.70145676427547       0.83435549419958
C         1.24295529324831       3.69781626620829      -0.42049479533942
C         3.71773400001882      -2.11801875937330       0.11294956204907
H        -0.51890585434246      -0.78393281544657      -1.98133511167937
H        -1.95505709053127       0.24233885618539      -1.92359747611315
H        -2.51606473287123       1.53027984614874       0.22416920932689
H        -1.49178942462000       1.27568514130159       1.66371389627906
H        -0.24962033427626      -1.39938807279825       1.03786329830788
H         0.53292117867367       0.07234193236651       1.57115418926087
H        -0.86061493642695       2.19779615271561      -1.23947579556433
H         0.61944205754813       1.28644523520950      -1.52877638967732
H        -1.59214210798441      -2.40795942803545      -0.38848353280193
H        -2.62619429844438      -2.07816214720663      -1.80163770345986
H        -3.65083491035318       0.06020414851075       1.76720113121417
H        -2.26117900668438      -1.04554249578863       1.90678361907734
H        -4.03386317368256      -0.52244632235919      -0.56385745394269
H        -3.89493006621671      -2.04484453115782       0.38502685175975
H         2.06581391901250      -0.03894845481246      -0.47871917228612
H         1.24694248282302      -1.57555479287943      -0.95313522234062
H        -0.04923506665827       2.85382276054120       1.06535967021037
H         1.47831143104185       1.94139166369462       0.77576985904922
H         1.92211329558001      -2.61273646347611       1.20528030380485
H         2.71321970384743      -1.07057510707540       1.70834610022561
H         1.77020739705642       4.33585829756790       0.32008234186554
H         1.97288773731560       3.37507889991985      -1.19328934809363
H         0.44244536963687       4.30014722618620      -0.90036895999658
H         4.25610706607456      -1.21998289422445      -0.25725976059783
H         3.47826052616083      -2.78166567885273      -0.74538222887219
H         4.38003942888040      -2.66753282314841       0.81399399435359
P         8.60263810449303       0.35473832744219       0.93080583119173
F        10.04869894140217      -0.33567534530898       1.56442272722578
F         7.21190028172982      -0.53424161559325       1.43026494999780
F         9.78930724345611       1.55591058504046       0.59793518954955
C         8.43695710269691       0.83378419485424       2.80279013758621
C         9.04446217715162      -1.15929827407788      -0.19739780698889
C         7.64585415130078       1.51044718725423      -0.28520959539535
C         9.52576154920788       1.76765407612628       3.39346140537580
C         8.03745302585856      -1.53716731098561      -1.30492807397928
C         7.21197337693573       2.89327969137142       0.23633596362249
F         8.45587475359612      -0.32649487144941       3.56723316716124
F         7.21469298268427       1.43621901717973       3.02859944823847
F         9.17695005959108      -2.30132781161708       0.58863316564342
F        10.26030793019544      -0.91731410142992      -0.82272520832554
F         6.48234315954054       0.87114528264593      -0.67341742614073
F         8.40960692534020       1.72056286290488      -1.42412374565769
F         9.23976606274676       1.99561816718560       4.72815246439719
F         9.55245341823474       2.98956754415172       2.75751600900825
F        10.78477833413440       1.19891682958843       3.32684514999096
F         8.45082767645576      -2.72002251941026      -1.89356380079279
F         6.77447778289577      -1.74447702158118      -0.78641007252504
F         7.98545328943152      -0.58343343840380      -2.30106331518969
F         6.24563136241817       2.77521753863189       1.21495180113988
F         6.65399060100365       3.60494441679084      -0.81141938482292
F         8.27953199464790       3.62370165341334       0.71173434972725
