51
C13H24F6N2O4S2 optimized with ForceField in AMS.
N        -0.83561303832941      -0.20376280658929       0.02831616423886
C        -1.17557439372598      -1.24307553578402      -0.99242167514546
C        -1.96855327968450      -0.23623173814423       1.00351905137381
C         0.43513392520596      -0.56741725792900       0.73630703578363
C        -2.60132289988748      -1.70087491808726      -0.74847140095940
C        -2.79857761364402      -1.47350496187873       0.72292299871944
C        -0.76124900448563       1.13802588003513      -0.63614393381515
C         1.70077449807692      -0.54657771605799      -0.15385794736547
C        -0.40410411764799       2.30770245507575       0.31151592536652
C         2.91397701207876      -1.08030451488978       0.61893700740364
C        -0.48797975746439       3.64504779669398      -0.42033378985528
C         4.17698199679354      -1.04059432350574      -0.23550934013812
H        -1.07142526294123      -0.88119066861319      -2.04113664208606
H        -0.52790643038997      -2.14579833964069      -0.90771788749334
H        -1.63530521803409      -0.23803682581043       2.06674556128401
H        -2.64720310989449       0.64010460275095       0.88909153788632
H         0.33328598487702      -1.58625014852544       1.17816736340757
H         0.60763357337405       0.11185694453234       1.60037532195622
H        -3.30751427772806      -1.06437730447230      -1.32670848988590
H        -2.74981748272220      -2.76838461498468      -1.02155214139761
H        -2.39591186317235      -2.33776604674574       1.29651525268954
H        -3.87096828661304      -1.32288323321033       0.97474540174592
H        -0.02052055803232       1.12096078870964      -1.46611370173129
H        -1.73993399515193       1.36564521424247      -1.11987710651818
H         1.55116629373265      -1.16660370909154      -1.06260746559325
H         1.92387789370437       0.49261448324561      -0.47356923659272
H        -1.09396967126339       2.33913135887618       1.18023535614307
H         0.63136688864304       2.19687267793038       0.69372492503899
H         3.07840644839826      -0.46346779770041       1.52951968607368
H         2.72762958858868      -2.13020746151726       0.93415937589301
H         0.22359973254214       3.66217047751818      -1.27331181048196
H        -1.51824277902399       3.81611525494448      -0.79887732835865
H        -0.22592328403112       4.46878718894738       0.27638916766095
H         5.03848015560894      -1.41084267123424       0.35935175592753
H         4.05842951377456      -1.68752614831903      -1.13052046142529
H         4.38869775160553       0.00006557211856      -0.56069249405109
N         8.36768122060561       1.93293652331467       2.17962715827183
S         8.36272362837391       0.55357101431495       3.06498936910753
S         7.32414949802004       2.19619321491310       0.94331944153172
C         9.48928743876751      -0.61701284726315       2.33429196286661
C         5.96082645017398       3.18086598758143       1.52978236937001
O         8.82415207268604       0.86371877179887       4.46059538048194
O         6.98287775440112      -0.04200439717291       3.11246262972188
O         6.80656840850746       0.89551067035399       0.39673751443369
O         8.03196112654485       2.95075980590386      -0.14588133998310
F         9.51659355285621      -1.76924879007672       3.09679400239819
F        10.75706175309956      -0.06873234770666       2.28714482569275
F         9.07669082151677      -0.92641073396798       1.05219487792460
F         5.06134371011572       3.38450699444386       0.50049437758203
F         6.43240919785629       4.40150626862112       1.97491731263354
F         5.32649921333809       2.52833460105187       2.56997051796825
