39
C11H21BF4N2 optimized with ADF in AMS.
N        -1.01430816051612      -0.98741533684838       0.66202099368123
N         1.15353159988136      -1.03288953579112       0.59425979710230
C        -2.38278415776263      -0.71241236400220       1.13583080570948
C         2.55821351174649      -0.82226500627820       0.99082191299725
C        -3.16087516113000       0.14815797930600       0.14618527869439
C         3.34257044292382      -0.06857446715356      -0.07733030568315
C         0.09876145124756      -0.69125865356078       1.34421553673537
C        -0.66163810918823      -1.52398861963838      -0.56051859037645
C         0.70273136487831      -1.55363231515707      -0.60287970347243
C        -2.50773768231473       1.50564064241759      -0.09890865467071
C         2.77067486785738       1.31570638496755      -0.37268229273967
C        -3.33111312179190       2.39347237941326      -1.02555129523044
C         3.60254497510472       2.08356748361842      -1.39499445140809
H        -2.87258048393317      -1.68331955565921       1.31241252650083
H        -2.26182300287485      -0.17931545392620       2.09028282312027
H         2.51420033229236      -0.23440367180909       1.91963788451727
H         2.99518722904505      -1.81210741110612       1.19794020526045
H        -4.17101701272749       0.28332708515917       0.57356135585013
H        -3.30510856139365      -0.39574053462376      -0.80682131775234
H         3.40947245708127      -0.67015846451417      -1.00362103264333
H         4.37784267395996       0.02115931722406       0.29866801473861
H         0.13925605867923      -0.21154767388093       2.31907869760113
H        -1.39998956265976      -1.82744873844658      -1.29179485074196
H         1.37986885880449      -1.88823860970389      -1.37839779927205
H        -2.34471540443731       2.00682849667372       0.86889817482181
H        -1.49817290213295       1.36238553400098      -0.51882123548995
H         1.73231697298527       1.21976595189539      -0.73212323618110
H         2.69490168051527       1.88396232184918       0.56837831409913
H        -4.32904401693587       2.59352943761852      -0.60231914805848
H        -3.47253081656298       1.92648954317133      -2.01468603243936
H        -2.83085633555609       3.36124251603782      -1.17720754045880
H         3.65614806476416       1.54723565618272      -2.35709279194550
H         4.63371407145880       2.23497992009416      -1.03648149642608
H         3.16491426733201       3.07455701202177      -1.58491527758651
B         0.24083428887017       2.14710346977508       2.68674318277603
F        -0.94351796048550       1.43287763340322       3.11140845907228
F         0.23708597402890       2.19446967478590       1.26135464658535
F         1.37462498076928       1.34917610454734       3.09763825730321
F         0.28683663437735       3.42050887703645       3.24056139730988
