32
C8H16F3NO3S optimized with ForceField in AMS.
N         0.83371304527218      -0.00395983493625      -0.03644679320835
C         0.07626007134540       1.22634073647543      -0.40876783897910
C         0.07456475827995      -1.23039392422837      -0.41726673129793
C        -1.35489336018511       1.25627214213215       0.15567862569415
C        -1.35742391348467      -1.26153323008695       0.14637308704676
C        -2.12758678408458      -0.00040673128757      -0.24042425746461
C         1.16001673328084      -0.01015684287618       1.41290198208892
C         2.11659180858625      -0.00085322683597      -0.78252288647258
H         0.00001818103928       1.31022067077083      -1.51778376411567
H         0.61261975261055       2.13736490638578      -0.05723275781568
H         0.60931420834107      -2.14424702287219      -0.07087751474843
H        -0.00113549206697      -1.30680444100964      -1.52677725513270
H        -1.88411444706088       2.14533928915352      -0.25091738165553
H        -1.34015113434402       1.36493494921797       1.26026428302459
H        -1.34468772031728      -1.37869027880923       1.25005407672453
H        -1.88830727914275      -2.14656445762690      -0.26649106940283
H        -3.11516446454642      -0.00111472028822       0.26953341230698
H        -2.30784860674714       0.00364176502560      -1.33802382277074
H         0.25481167105909      -0.02328581228004       2.05043504202860
H         1.76751460135008      -0.90308712556268       1.68220458307012
H         1.74198591387468       0.89416100519887       1.69150128713878
H         1.94556028511458       0.00394058852263      -1.88259996334903
H         2.72478880765699       0.89810108816666      -0.53245723732592
H         2.72454664752719      -0.90200078484314      -0.54092824350534
S         5.94622848024416       1.29928241341633       2.04978761331642
O         5.47275143456026       0.05662901181630       1.28082754739880
O         6.35630002071446       2.26689117889473       0.92957196745008
O         7.29488181685268       0.85413498314244       2.63512604703503
C         4.76207521762858       1.96643205238633       3.25479748639343
F         4.44821801990475       0.99235460756390       4.18336378795213
F         3.61328000584060       2.36594871031900       2.60120681879852
F         5.32040500569621       3.05305955455484       3.89990288217663
