52
C14H30F6NP optimized with DFTB in AMS.
N        -0.17909737157780       1.27907109339112      -0.07408248288919
C         0.24953676297732       2.41571802195328       0.79932245658769
C        -0.81416593035169       1.97328450309939      -1.24265981755104
C         1.01714578770727       0.50111011139410      -0.55165502971052
C        -1.17245762946191       0.41081864030452       0.63775224657660
C         0.74708482750775       3.49543488403809      -0.16274480648537
C         0.07234033620654       3.18335397210755      -1.50855431435675
C         1.71955252527961      -0.33882639306338       0.50946091077636
C        -1.71534419118913      -0.72478771436910      -0.22722344605453
C         2.93872507404412      -1.00842739031759      -0.13928535764289
C        -2.68859082794343      -1.58260551108501       0.58680351491844
C         3.65852692605953      -1.92703093281462       0.85228108780184
C        -3.23367428346262      -2.72896139165396      -0.27162310562997
C         4.86524039574080      -2.60084110428869       0.20167901173700
C        -4.21339515994943      -3.59604861634239       0.51594004930550
H         1.00757628495987       2.07645644599944       1.50456871804230
H        -0.62767805876817       2.75932876896995       1.35283288059563
H        -1.81881484108802       2.27684381515208      -0.93905454373186
H        -0.87236429586369       1.29364906106523      -2.08987287608409
H         1.71380768458866       1.22329800679515      -0.97920100211171
H         0.67244653251191      -0.14918015929512      -1.35179735280978
H        -1.99082206696001       1.06409980585968       0.95528498045998
H        -0.68135659104915       0.02054221730004       1.53259509455358
H         1.83439191011742       3.46192404556286      -0.25395571847208
H         0.46787904197841       4.48254887291334       0.20966172409127
H        -0.52985757897326       4.02202764649210      -1.86102264926127
H         0.81399289045969       2.94868615437450      -2.27450954222049
H         1.05034020967348      -1.11548237140603       0.88889303436149
H         2.04426550193788       0.27432313641038       1.35656814902164
H        -0.90046820373145      -1.35372397243009      -0.59124164669603
H        -2.23270376356112      -0.31576387774377      -1.09717429876288
H         3.62990257940214      -0.23715489894843      -0.49537155745717
H         2.61014629373909      -1.58897207501818      -1.00661696403490
H        -3.51737838955543      -0.96088701859841       0.94413232518231
H        -2.17370222247237      -1.99065004392877       1.46412453766925
H         2.96175966656747      -2.69304983348886       1.20932438376806
H         3.98748950844564      -1.34325749032107       1.71932163043670
H        -2.39990127329390      -3.34493685890587      -0.62260083134517
H        -3.73640724808375      -2.31452706349199      -1.15097278049760
H         5.36275998294930      -3.25077166657250       0.92178252184815
H         4.55087461377865      -3.20230917995734      -0.65189620636301
H         5.57986515325259      -1.85294622205365      -0.14465572934031
H        -4.58572152340826      -4.40232168374546      -0.11600066342262
H        -3.72335634047157      -4.03483021050114       1.38662855178462
H        -5.06248120332210      -3.00206105566099       0.85794690730104
P        -0.12730905660321      -0.81937858984564      -4.01375110577921
F        -1.51219907389118      -0.26314336029614      -3.24553624962715
F        -0.93486668892753      -2.12763403656664      -4.53806379191934
F        -0.52241098366368       0.03201175639384      -5.34324007415657
F         1.26478027133327      -1.33060084015647      -4.68186581860727
F         0.67691924221759       0.53610023992730      -3.40070703574234
F         0.26067039698789      -1.62641910293662      -2.59277355805631
