34
C10H21NO2 optimized with ForceField in AMS.
N         0.41918333692522       0.22652706147472       0.04108556590071
C        -0.51849140270082       1.27111540773166      -0.48208367115013
C        -0.10019238058751      -1.14171365697487      -0.26654960196913
C        -1.98521295748040       1.08013859638333      -0.05347808833953
C        -1.55238454671989      -1.36830588404375       0.18730474191353
C         1.72884300812507       0.44174928844890      -0.65912329334176
C        -2.47708916325668      -0.31664750694911      -0.41254273437436
C         0.60844228609773       0.40307756130465       1.50685474648349
C         2.87117388630033      -0.50549711892315      -0.24819827033200
H        -0.50698965069639       1.27692234815484      -1.59723584787011
H        -0.19170294513330       2.28595888460519      -0.15837819850186
H         0.51988018186293      -1.92252025409425       0.22465620477579
H        -0.05458525409829      -1.33269897875197      -1.36103839573195
H        -2.61578417561346       1.82804393039178      -0.58115146226147
H        -2.11293816966544       1.26391704608429       1.03327510282295
H        -1.62277931974661      -1.35039841892041       1.29554431912757
H        -1.88566576152328      -2.37407945411701      -0.14854243557750
H         1.59908703074391       0.33538635222591      -1.76100097807086
H         2.08787370159363       1.48325010050160      -0.48899699256138
H        -3.50686124604465      -0.46005505280301      -0.02047058199519
H        -2.50855447455282      -0.43147072633586      -1.51886446576477
H        -0.35158971620758       0.41255613700730       2.05820229463681
H         1.20104995298114      -0.42837219125556       1.94450298960060
H         1.12822271375851       1.36109290138498       1.73113205377777
H         3.77237332316429      -0.25717513452870      -0.84785427751954
H         3.14553059140854      -0.37773655233848       0.81814693624330
H         2.62238451035876      -1.56492944847705      -0.45682722080253
C        -0.38878095751411      -1.76850303756221      -4.32392140717696
C        -1.06054409435172      -3.10496020566293      -4.28545108806695
O        -0.44623928573478      -4.10503504252010      -4.61918313881092
O        -2.22184942914314      -3.20025081256608      -3.92187883086600
H         0.49314511564420      -1.77566495432007      -3.65037719601297
H        -0.04965143507975      -1.55029592811327      -5.35816859266767
H        -1.08733851941364      -0.96828918224131      -3.99698918261697
