38
C10H22BF4N optimized with ADF in AMS.
N        -0.08019816334763       0.00952786605681      -0.23147768351151
C        -0.98848734910094       0.43161395127513      -1.38185569767809
C        -0.65894189693687      -1.22320241693280       0.43015075818909
C         1.26938634972074      -0.33007103882575      -0.84507809479291
C        -2.43256464375085       0.62297226017997      -0.95852989933995
C        -2.10610285052257      -1.05468074423863       0.87186848254623
C         0.05435194673845       1.11875443635531       0.80111095571580
C        -2.99783940346328      -0.63060549378900      -0.29394056820899
C         2.35089707278001      -0.76573327833727       0.12686439402353
C         0.75964317177086       2.36587675639174       0.31136151536608
C         3.66121556203611      -0.92512778116095      -0.65088290047067
H        -0.90099791781925      -0.37294999154327      -2.12817299717984
H        -0.55471657602977       1.33210833672220      -1.83923152538424
H        -0.00437949481162      -1.47482685660858       1.27560027309376
H        -0.58119593046577      -2.02476346613337      -0.32212878397511
H         1.59264118721396       0.55433933245195      -1.41141550113239
H         1.06406670726163      -1.11705170746614      -1.58663367761244
H        -2.99568124875641       0.87500269567756      -1.87177429963692
H        -2.53416411610644       1.49710232777525      -0.29235851771961
H        -2.17535736174478      -0.32543876718010       1.69676941830667
H        -2.43395777991027      -2.02173876065089       1.28891094672215
H        -0.96479980448895       1.35343594242623       1.13076072496179
H         0.57986673241181       0.66607425932304       1.65507326225474
H        -4.02957697409009      -0.46267627272655       0.05292026802405
H        -3.03591608350933      -1.44874550716131      -1.03692185602140
H         2.49576267679150      -0.00837956354406       0.91417682386886
H         2.09552099759874      -1.71630978827406       0.62496420212791
H         0.74055696734618       3.10171033075726       1.13065597591993
H         1.80646392507178       2.18416600862712       0.03686215609977
H         0.27745668338561       2.81385463545010      -0.56830795346738
H         4.48007124665905      -1.22042915056030       0.02060640592333
H         3.56453420837973      -1.69348024820698      -1.43295163689587
H         3.92936346819397       0.01967972154717      -1.14693860416501
B         1.42145710556615       2.13119124815592      -3.45804902536772
F         0.29733962041131       2.83146239967339      -2.87763067392543
F         1.88673845340910       2.79238227488730      -4.59028530342216
F         0.99735166405241       0.79884546838428      -3.75900661334156
F         2.44761596175575       2.05390069062228      -2.44695234969450
