45
C11H24F2N2O4S2 optimized with ForceField in AMS.
N        -0.55307069010254       0.09478919042330      -0.09169782220280
C        -1.55333409715571       0.54539130654057      -1.11433928660826
C        -0.89284769098233      -1.30393868793745       0.32967796959244
C         0.78217851237573       0.08082272092374      -0.78375695843291
C        -0.54124723566672       0.99265592950699       1.11575091347010
C        -3.01525716215795       0.44907218848095      -0.64973775127455
C        -2.34821844388742      -1.48036013617251       0.81203145842579
C        -3.34672653318479      -0.97864538233428      -0.22755255032367
C         2.00222406640804      -0.29192363637264       0.09482018995626
C        -0.13892949485157       2.45564195822551       0.85707940503727
C         3.28076350765907      -0.31772655080510      -0.75483431727134
C         4.50219654324067      -0.69107361512733       0.07929738215313
H        -1.46859013425186      -0.08031835841080      -2.03400308577368
H        -1.35303320535595       1.58344604353075      -1.45301093284275
H        -0.23633299220820      -1.64084954212124       1.16073324005721
H        -0.73354210515389      -2.01532657485046      -0.51328406535899
H         0.98522921890170       1.06877755594807      -1.25406409275513
H         0.75685418952724      -0.63854449906152      -1.63539281654501
H        -1.53438254598745       1.02445646224981       1.60431857461671
H         0.13508492273569       0.58567107185333       1.89829189619206
H        -3.67935214278728       0.73490944887325      -1.49433087613682
H        -3.22323480794790       1.15963157189840       0.17658326452494
H        -2.51232288727248      -0.96112446039927       1.77918103612533
H        -2.53733321985859      -2.56034471323620       0.99527953143230
H        -4.37376329368135      -1.01046723852352       0.19681643097290
H        -3.32224916500465      -1.64546485985947      -1.11792662748864
H         1.86576261172430      -1.29627392534742       0.54451352149433
H         2.14259953554571       0.45180958735764       0.90643359095319
H        -0.15119790661304       3.00301715716969       1.82332020742834
H         0.88706040186642       2.53932414708084       0.44829923294372
H        -0.86001741575898       2.96652308082266       0.18888893291932
H         3.45068020194289       0.68411918403772      -1.20640511906496
H         3.17116992520284      -1.05931819581478      -1.57595531370273
H         4.36169273656613      -1.68824570833906       0.54944189769042
H         4.67413964818118       0.07212812630187       0.86635157167282
H         5.40083270609126      -0.72944654372273      -0.57214813154189
N         2.47499522327033       0.87138147433770       4.63688281464430
S         3.50787992885691       2.02923269495325       5.15665826237715
S         3.01044371334843      -0.61398526411851       4.20813879961127
F         4.33705691889082       2.65726231351767       3.84497592377584
F         3.38210381845297      -1.48743375079206       5.58672178503822
O         2.73447597107654       3.12808806112934       5.82795069380680
O         4.49723957583937       1.44119522223098       6.12368827393013
O         4.24930876661667      -0.49084451048831       3.36783487713833
O         1.94019066924973      -1.33188038965936       3.43659913114353
