45
C11H20F6N2O4S2 optimized with DFTB in AMS.
N         0.98649423557619      -0.56892557281710      -0.16560318280723
C        -0.19553001105870       0.08263982547368      -0.82006087834639
C         0.55583482368727      -1.90204876272661       0.38423283880419
C        -1.38343681246468       0.24439475207253       0.12203448028456
C        -0.62010338713130      -1.79857837948460       1.34548950178175
C         1.54991609950204       0.27907766451043       0.94200511608548
C         2.01167750937535      -0.80322311170288      -1.25166733115867
C        -1.81318436711582      -1.10760385200739       0.68937318300997
C         2.07690961064630       1.63818220572145       0.51409947313041
C         3.34262151794928      -1.37325393058083      -0.78684363283977
H        -0.47807896851188      -0.55107131243818      -1.66567503293935
H         0.12699171094504       1.05184929902035      -1.20485210976001
H         1.40917018997535      -2.34433546303192       0.89852435701722
H         0.28685909972832      -2.52514980216796      -0.47315537066477
H        -2.20102442649557       0.68418221028837      -0.45534838467790
H        -1.14034046834221       0.93624601112144       0.93226097203454
H        -0.32636630758697      -1.27125788400227       2.25634143491030
H        -0.89274493583560      -2.81781693919058       1.63073402354227
H         0.76654936957491       0.41076731280221       1.68823944722570
H         2.35207063504708      -0.29793458117380       1.39412791272090
H         1.54529503167381      -1.48634145646558      -1.96703392240313
H         2.16668343884727       0.15623776129964      -1.75133727329377
H        -2.60902924495344      -0.96246732616002       1.42317925206878
H        -2.20406573063277      -1.73480140661396      -0.11859604338007
H         2.51387385286003       2.09852571658410       1.40030250279372
H         2.85864991337660       1.55622544392181      -0.23817604805797
H         1.28729781777821       2.28964247954526       0.14151317285796
H         3.95452149450555      -1.52708650532536      -1.67577103694816
H         3.87041980151074      -0.69412578048068      -0.12129658770483
H         3.22338843198296      -2.33032284552401      -0.28507926763873
N         5.36808148754103      -2.27942993849584       3.23197952652651
S         4.03743295899033      -1.52445223057399       2.85024414541688
S         5.22443871260428      -3.89161485134039       3.39206626561574
C         3.07534597909720      -0.99902488159597       4.37741939620151
C         4.96419981846955      -4.54315965826383       1.64143181044086
O         4.37784639396521      -0.24060634555319       2.26578986733360
O         3.04163094760167      -2.30683506741296       2.11801959927571
O         4.06683956295490      -4.32516735375041       4.13004979474398
O         6.51726481797300      -4.38116682112435       3.77419625893821
F         1.91013497178137      -0.50152109325734       3.93195287717845
F         3.71077715097937      -0.03920625182791       5.02708655554047
F         2.81401845049948      -1.98606387622759       5.20589491684521
F         5.78853971059829      -5.55359337300227       1.42108086968050
F         5.21444307035794      -3.59641664449319       0.74001954709726
F         3.72198826397303      -4.96638059634831       1.46733605451811
