51
C13H24F6N2O4S2 optimized with DFTB in AMS.
N         0.72322377530623       0.67160588200781      -0.53357629513889
C         0.89252765602806       0.23018006325788      -1.96005692877440
C        -0.76171117355167       0.80025812244419      -0.39515908150048
C         1.25003164921272      -0.36088410603592       0.41727010226689
C        -0.15529235351113       1.00905304174724      -2.74618853696226
C        -1.24116775145014       1.38185652940328      -1.72418435515047
C         1.39507643760111       2.00542080129577      -0.34780023590618
C         2.75231737818661      -0.59629130221844       0.28571287567088
C         1.36914403503190       2.56400094877043       1.07101553866834
C         3.20288637864969      -1.69610976869790       1.25339231902004
C         1.95713822822214       3.97597891144746       1.04457049218189
C         4.70415749334395      -1.94162751879646       1.11391453407834
H         1.91083461656711       0.43785018284585      -2.28971512020492
H         0.70283542749708      -0.84444801003073      -1.99862835009077
H        -1.16807371428589      -0.20145069213997      -0.23701997322454
H        -1.00259459067517       1.42333642703362       0.46542464045376
H         0.70845918873256      -1.28771590450865       0.20723714394543
H         0.99139831260152      -0.03469361326907       1.42779669946007
H         0.28406680429015       1.90344424800562      -3.19174071172096
H        -0.55599787047966       0.39161028057075      -3.55146720948574
H        -2.20990728694821       0.95549988251303      -1.98997648460018
H        -1.35486162934077       2.46530736938415      -1.65458893261189
H         2.42802207206145       1.88096459036411      -0.67637455016909
H         0.91175371468631       2.70447397379198      -1.03187768845740
H         2.99233607199642      -0.90048068533199      -0.73462255279379
H         3.30611313539381       0.31887984151844       0.50453657079161
H         0.34862977608283       2.60113508590150       1.46430775026679
H         1.96760780873086       1.93887333066930       1.73935992043076
H         2.96931704278939      -1.39999359329683       2.28202090408457
H         2.65617018645785      -2.62004847879078       1.03646742471690
H         2.96504672940648       3.95957129524372       0.63108219991016
H         1.34425773439125       4.63181857247834       0.42652624414842
H         1.99557823379205       4.37901631569581       2.05571013622554
H         5.01391275534545      -2.74165449357289       1.78589127023685
H         4.94798407617274      -2.22778634858858       0.09070045800340
H         5.26146948355438      -1.03843341612488       1.36353739926974
N         3.63248833989264       1.64779288192803      -2.41508080307489
S         4.66129716847774       0.54082243849551      -2.96376532904379
S         3.86773475627999       3.19214193134450      -2.79776782522097
C         6.09608176931864       0.55356457992054      -1.75969165342631
C         3.17571072400838       3.39920556583178      -4.52434590817171
O         4.01705587977985      -0.72903439063124      -2.69772311372158
O         5.20901573226271       0.77262578695265      -4.27179291613155
O         5.23513584439625       3.63292021590136      -2.83197300625968
O         2.92044752948043       3.92739705161085      -1.98536869563441
F         6.61200217806701      -0.66357951593805      -1.67866988399435
F         5.63105159886988       0.88662054555229      -0.55436701032430
F         7.03694545807392       1.40113034397101      -2.10830284439974
F         2.79467134460894       4.65465321427147      -4.69528581195956
F         2.09609194108405       2.61827395453631      -4.62908373718453
F         4.03312400091007       3.07481329326584      -5.46440808359107
