40
C12H26ClN optimized with DFTB in AMS.
N        -1.88446396956956       0.04948478183848       0.14364364658862
C        -2.12201844922924      -1.04261580737494      -0.85993774196142
C        -2.95855309509761      -0.18182578016081       1.16134104497633
C        -0.53701288861517      -0.09176169589682       0.78599804420351
C        -3.63644771332673      -1.15534212155529      -0.96976995785400
C        -4.18517932725852      -0.62967833272903       0.36710084441726
C        -2.06797142260910       1.38576096514674      -0.52641229595519
C         0.63551802360687       0.07252841133039      -0.17752379731591
C        -1.72502382031627       2.58129328065397       0.34669224830744
C         1.95200315452431      -0.13678313050559       0.57615997915445
C         3.14308452972000       0.02570186126971      -0.37333560213814
C         4.47084012027436      -0.19242502506702       0.35783483981584
C         5.65848992424061      -0.02851556764060      -0.58920840490976
H        -1.68669699430312      -1.95980329660615      -0.45657908114123
H        -1.63316647730122      -0.77461202670525      -1.80505700552714
H        -3.12397289177350       0.72615600907824       1.74054739382699
H        -2.61712452823961      -0.97494449907789       1.83038545895897
H        -0.50912081886402      -1.08956842127728       1.23410534168161
H        -0.48492568218571       0.64428001133680       1.59287446266486
H        -3.92663951576494      -2.19262685645457      -1.14339830376345
H        -4.00913597267907      -0.55517341574461      -1.80202227039662
H        -4.87002390615112       0.20527151326136       0.20633322937218
H        -4.72120096762822      -1.40558607733124       0.91655600512429
H        -1.44413757669397       1.37592645493805      -1.43001316935297
H        -3.11413782229113       1.43843672432097      -0.83308236052170
H         0.55778522836882      -0.65225491865183      -0.99030768830112
H         0.62826984724444       1.06760303224227      -0.62608092313481
H        -2.01298910081711       3.47711145388881      -0.20303318443026
H        -2.26444963789884       2.57501763843667       1.29406092214346
H        -0.65694919134804       2.64043649132346       0.54807923828221
H         1.96753913435091      -1.13935835672142       1.01883594141197
H         2.02904758447123       0.59030062128401       1.39283120942207
H         3.12443626687066       1.03014691438897      -0.80818725713778
H         3.05283146312934      -0.69399837795068      -1.19300251418189
H         4.55803158292160       0.52725092519679       1.17949729024183
H         4.48755126952023      -1.19820848606651       0.79212332150582
H         5.67038646418122       0.97509726829788      -1.01628736141098
H         6.59264223271529      -0.18815377728799      -0.04998114800382
H         5.59916039031992      -0.75112433809429      -1.40405471061818
Cl       -0.50456987479804       0.45634126416627      -3.17896761974338
