47
C13H26F3NO3S optimized with ADF in AMS.
N        -1.77802637287201       0.07945183471466      -0.23175211897387
C        -1.77114343499205      -1.18098302565445      -1.12304701751343
C        -2.97315147549699      -0.11351602071711       0.68680306089581
C        -0.50730010767798       0.11823620262403       0.61426601341449
C        -2.75241702668139      -2.17353064442648      -0.48734966169433
C        -3.03076098359791      -1.61236989385907       0.91199121803778
C        -1.92462932281850       1.31740890619553      -1.08021813645732
C         0.76159490580971       0.39237990907529      -0.17029964823003
C        -1.97482461117034       2.61095935961974      -0.29141854195059
C         1.98560987158633       0.10581992501512       0.70969882000649
C         3.25472328579850      -0.08869367884910      -0.11597862664525
C         4.42450809606923      -0.58242189751015       0.73074270425301
C         5.68420912974151      -0.81712482750487      -0.09743567485717
H        -0.74719046084874      -1.58541091827964      -1.14497010138837
H        -2.06490156441326      -0.86877164696384      -2.13429541091384
H        -3.85816852319109       0.23643529956886       0.13093924290234
H        -2.84041925042177       0.49583156444177       1.59014453255176
H        -0.43617341041824      -0.88259680811013       1.06887755746176
H        -0.67677664862406       0.86704369530266       1.40236230911149
H        -2.29836609249468      -3.17304523995543      -0.43755969985487
H        -3.68381075657845      -2.22758220055456      -1.07327750578672
H        -4.00724967217276      -1.91833667520105       1.31475421587362
H        -2.24685523591705      -1.94212824156932       1.61009868493173
H        -1.07898421811553       1.31177713576313      -1.78277393167180
H        -2.85015079054667       1.17378010846038      -1.66070039749583
H         0.81218114576408      -0.29360346208947      -1.03081418699875
H         0.79964292256399       1.42876733238960      -0.55003833106670
H        -2.12584453879025       3.43990482775852      -1.00013698249971
H        -2.81042325406247       2.62983777865089       0.42301328359944
H        -1.03747716802303       2.80379633735473       0.24882541616958
H         1.80749133465117      -0.82467179658773       1.27514725260253
H         2.12529622543806       0.91244222575282       1.45338586708009
H         3.52650560724426       0.84973849450331      -0.63729698169619
H         3.04099689794416      -0.84688595980333      -0.89077311072299
H         4.63324681783416       0.14157560143483       1.54021274112807
H         4.11788043496823      -1.52833085271925       1.21044168127341
H         6.02541952956670       0.11294049765947      -0.58056690639689
H         6.50738639502585      -1.19894207747620       0.52624245566551
H         5.48976565119341      -1.55845343788755      -0.88863249037422
S         0.96527856683941      -3.42291774245914       0.25079292531159
O         0.92170159119004      -2.74565806299787      -1.06743810396040
O        -0.13067899934766      -3.00993597559807       1.16256251081798
O         2.28941105044711      -3.54627931912949       0.86186106648747
C         0.49724403693901      -5.18800709917960      -0.18638135066185
F         1.38740042348790      -5.71952840529007      -1.06100642685970
F        -0.73986507742391      -5.23819602148668      -0.77259820844058
F         0.45856794629398      -5.98100983102571       0.91423832533547
