51
C13H24F6N2O4S2 optimized with ForceField in AMS.
N        -0.55302538673476       0.09163520872409      -0.10676975919550
C        -1.55139998371494       0.53923929268598      -1.13137414210777
C        -0.89509477209536      -1.30434227806585       0.32152137913470
C         0.78475494028788       0.07143977696409      -0.79374795111140
C        -0.54104187726392       0.99512861785827       1.09484299369262
C        -3.01362854595886       0.44790411250485      -0.66447157160527
C        -2.35024604512532      -1.47578686077208       0.80520444817431
C        -3.34751139426771      -0.97724378230116      -0.23643801951951
C         1.99893138654037      -0.29684810053724       0.09613280443536
C        -0.13170339462552       2.45590329381766       0.83013930605026
C         3.28748062478061      -0.32884181579699      -0.73693933549856
C         4.49405451090585      -0.70766445373809       0.11792168712045
H        -1.46575848191917      -0.09131648706385      -2.04749729823465
H        -1.34805535585287       1.57557124293326      -1.47258627493640
H        -0.23946124850814      -1.63697223498188       1.15478606415296
H        -0.73572829885440      -2.01918757251094      -0.51847809324929
H         0.99040045622635       1.05659950124678      -1.26876892052025
H         0.76173417387608      -0.65419260771321      -1.63983960980391
H        -1.53398887296827       1.03145142955742       1.58263647204388
H         0.13275474752128       0.58456054130307       1.87581711676501
H        -3.67902239789026       0.73247415972701      -1.50807367146669
H        -3.21922690994445       1.16163237917798       0.15960686896113
H        -2.51256387653668      -0.95228113464522       1.77036544371202
H        -2.54129399124534      -2.55450934448351       0.99308528740674
H        -4.37438412066616      -1.00673890256272       0.18764860640545
H        -3.32270246429035      -1.64737584393045      -1.12398141449645
H         1.85809531203411      -1.29712670307261       0.55341582368680
H         2.13342666204262       0.45209121107303       0.90343349488659
H        -0.14559181055619       3.01089285120662       1.79158728694364
H         0.89641554279206       2.53426043971042       0.42569099160763
H        -0.84765734458565       2.96647382867333       0.15654267659065
H         3.46718474038515       0.67177616871831      -1.18732284268357
H         3.18577543030997      -1.07062682556728      -1.55898296229350
H         4.35455465602155      -1.71874294703243       0.55649483476826
H         4.63677048410502       0.03103973791754       0.93518253929128
H         5.40738585980730      -0.71875668514436      -0.51365776516511
N         2.58295123058118       3.51611643995260       5.05631675701809
S         2.69484102314549       4.98355945882930       5.77725495970354
S         2.07965086376725       2.17383544982971       5.85101641387046
C         4.34090072518046       5.19520038985087       6.42381266193474
C         0.35495572374409       1.90348222599555       5.50444959876277
O         2.43252239795873       6.05486081548943       4.75697311754280
O         1.69838520138519       5.10120464103021       6.89714416240497
O         2.27295651323067       2.32622203738610       7.33429868728926
O         2.86336089522972       0.98923823912735       5.36095637309375
F         4.44915551059191       6.44022311299595       7.01335600533830
F         5.25746834937433       5.09457105442232       5.39441285553102
F         4.60234657094007       4.21860346313809       7.36585454977248
F        -0.08132544371623       0.77670886353183       6.17444508131679
F         0.18265156362295       1.72295883399912       4.14793612570880
F        -0.38198976606772       2.99752789084172       5.91577634007032
