49
C15H28F3NO2 optimized with ADF in AMS.
N        -0.65906562064708       0.05677717466547      -0.37429187218182
C        -1.39216679935577       0.28552000517621      -1.68197016508820
C        -1.26823082317583      -1.12960746659684       0.34326515021975
C         0.78772057127478      -0.26066128365938      -0.74188759816574
C        -0.74460377054188       1.28221799109863       0.52380363290826
C        -2.89184469939601       0.43910556011437      -1.50167480504419
C        -2.77526544258010      -1.02545120457065       0.53361293366686
C        -3.49115733643591      -0.77678578433428      -0.79410722611374
C         1.74385906379367      -0.44108798791906       0.42117576857254
C        -0.22344483313192       2.56469463981407      -0.08938760994919
C         3.15341571532789      -0.67925647245723      -0.13391018149292
C         4.19126353090937      -0.83574930129344       0.97356270566939
C         5.60812998213412      -1.01765344461002       0.43313314238265
C         6.64751415460931      -1.17480787724865       1.54008787091098
H        -1.16345144259340      -0.59407616014567      -2.30426260273431
H        -0.92388711040530       1.15210475502409      -2.16265178554230
H        -0.74069028910468      -1.22658901567371       1.30197635414373
H        -1.02032946949456      -2.00636638634348      -0.27636964966158
H         1.15146103149213       0.56524685633989      -1.39068990132517
H         0.73080670095544      -1.17982294753486      -1.34650068385173
H        -1.79973777379549       1.38163801324237       0.80602911132240
H        -0.18468923190437       1.01124768092003       1.42953447029450
H        -3.32778176480212       0.56475711999708      -2.50668334838816
H        -3.12712828226620       1.36561101781490      -0.95069655372274
H        -3.02098061158886      -0.23116329295472       1.25839068020161
H        -3.11132742569984      -1.97064600477371       0.99218919874405
H        -4.57121973156539      -0.64051671378392      -0.62709653823316
H        -3.37511905721072      -1.66556549039295      -1.44156969576325
H         1.78159225974500       0.47313100000739       1.03625189889423
H         1.45588979918764      -1.28168891836659       1.07821158518778
H         0.78026197722182       2.46317101220910      -0.53450300180367
H        -0.89110501378020       2.94931917503690      -0.87311748129195
H        -0.18319956493761       3.32088100561355       0.71001631859584
H         3.41297243573403       0.17514929469710      -0.78332892315608
H         3.15356762215787      -1.58209450200111      -0.77227849432385
H         3.92972180041001      -1.69770902519558       1.61751676632616
H         4.16591480377194       0.05955280984160       1.62308832312607
H         5.63146547000229      -1.90220577269727      -0.22871234466313
H         5.86159971736497      -0.14902376353287      -0.19999977546101
H         6.42756892975573      -2.05378369839509       2.16795620735923
H         7.65950999145778      -1.30131838025575       1.12610357063482
H         6.66026604547087      -0.28941365704440       2.19597822989234
C         2.38731879186774       2.27972727065856      -3.19921738297299
O         2.19895520500965       1.97043983623897      -1.98313180636111
O         3.37014902238127       2.73049481204404      -3.79429185192081
C         1.11146336825094       2.00591195881726      -4.08970842209438
F         1.22755176955020       2.37371666277861      -5.38671029373409
F        -0.01810870025765       2.65829997009092      -3.60252091321597
F         0.77587443583443       0.65697315964015      -4.09435306609593
