22
C6H14ClN optimized with ADF in AMS.
N         0.55258909359311       0.00253259685141      -0.07706117310300
C        -0.44796755482101       1.04569197626051      -0.66810619119693
C        -0.31681662646528      -1.22203409541530       0.08189814595443
C        -1.72569801255747       0.79527038395969       0.11570049384336
C        -1.67600570421135      -0.69379946839228       0.55151175843883
C         1.05689792788538       0.46725538739049       1.24654924419609
C         1.68727848175419      -0.22603460873686      -1.00823325521590
H        -0.58063221844270       0.82749550498824      -1.73885566369496
H        -0.01500880175856       2.04863831165825      -0.58576948952022
H         0.17362446231451      -1.93300318233923       0.76313261412836
H        -0.38800760282571      -1.67183444323896      -0.91887888973439
H        -2.55738850832154       1.05139328741459      -0.55974129583467
H        -1.80255346179217       1.46305761529812       0.98622264002545
H        -1.79081209448213      -0.80700361581385       1.64030615886193
H        -2.47694430081665      -1.28116352854630       0.07910195390904
H         1.58803973296369       1.41661870137095       1.09975358558396
H         0.20271878537839       0.62664139735307       1.91471334929189
H         1.73428007062211      -0.28853251752257       1.66774328643629
H         1.28273059131542      -0.54642466030667      -1.97579028241004
H         2.22788800846518       0.72024861126777      -1.13988700303690
H         2.35466722652254      -0.99418927987110      -0.59370494537363
Cl       -1.89902856051994       2.78481500807003      -2.38143636514901
