46
C12H19F6N3O4S2 optimized with ADF in AMS.
N         2.22956685007379      -0.63212643314257      -0.05676911830752
N         3.29337682485460       1.19437694651900       0.43930387819909
C         0.10671772910833      -1.87849244636190      -0.31818745156962
C        -0.76863992083639      -0.63101625317648      -0.40155268460317
C         1.52466288637896      -1.66559985426912      -0.83130964960942
C        -2.18906984318263      -0.86890005098760       0.10826693882034
C        -3.07511294473082       0.37180184612468       0.02337953017415
C         2.63001129969894       0.55239307143972      -0.53206511179672
C         2.63972965077775      -0.74780595946080       1.25376955984570
C        -4.48860341801187       0.12465825496460       0.54523141114731
C         3.31890397394454       0.39303347386090       1.56234510551585
C         4.08651008915344       2.40284929972704       0.24058417734284
H         0.14165864938881      -2.24591350183676       0.72325583445051
H        -0.33458759919867      -2.69414637919503      -0.91690790907141
H        -0.80798788733436      -0.28233414430221      -1.45090277501235
H        -0.30819232379860       0.18551463124170       0.18544392335690
H         1.54408488627468      -1.33049866966906      -1.87834128672200
H         2.14367566110566      -2.57315434833480      -0.77794065412643
H        -2.65319488301723      -1.68913433540382      -0.47070065032937
H        -2.14703430595210      -1.21564119789095       1.15817641590725
H        -2.60603011987325       1.19261260217653       0.59665057813051
H        -3.12133454016857       0.71260938946457      -1.02715058556225
H         2.52947867187017       0.88338377508165      -1.55721392287189
H         2.45609130677399      -1.64005594150973       1.83645108132006
H         3.84487508499277       0.68432623782793       2.46250686672380
H        -4.46898136861952      -0.18955883578248       1.60150857548281
H        -5.10825377968309       1.03066375330803       0.47428875260322
H        -4.98719819958474      -0.67174835754711      -0.03053773045079
H         5.08716105262611       2.10212106669483      -0.09989220450366
H         3.60335317022540       3.02718420313505      -0.51922582823264
H         4.13713984777849       2.95473514945202       1.18573743718148
N         4.60409540686179      -2.36398274178150      -1.61150674061245
S         5.04995669840698      -0.90366929974274      -2.10674418677003
S         5.63472792624473      -3.39527783573676      -0.90276142494534
C         6.41076777408715      -1.13285812666314      -3.43617418233085
C         5.22397355458307      -3.24310933729705       0.93388770614627
O         3.91199164624510      -0.37198400234505      -2.87207666864906
O         5.65845565842768      -0.02887806985231      -1.09746432903206
O         7.03939921745006      -3.01990444425839      -0.98624402955130
O         5.19031577361466      -4.74733384363052      -1.20095461454993
F         6.24279764059361      -0.16953968396361      -4.37685651627426
F         6.30213422385264      -2.33938398197284      -4.02855965335751
F         7.63891638389796      -1.00020565300938      -2.90910927005344
F         5.95252831896708      -4.13539455465129       1.63817363477181
F         3.89956024582731      -3.51564603873320       1.16046559947345
F         5.48127439900558      -2.00427844471004       1.42036099570213
