34
C8H20BF4N optimized with ForceField in AMS.
N        -0.00028638309537       0.00064051468288      -0.00015673779314
C        -0.85146174627035      -0.25462677903078       1.21352987389868
C        -0.84789900302862       0.25629720588502      -1.21641394661225
C         0.84945413553426      -1.21464858608009      -0.25463467914337
C         0.84794424597826       1.21628267033503       0.25710426974649
C        -1.90360238392272      -1.37295521623357       1.07688091550365
C        -1.90363153029432       1.37150585692210      -1.07955944391027
C         1.90516018197165      -1.07711303269587      -1.36983624875538
C         1.90187532239225       1.07914592374457       1.37406603411980
H        -0.21760904667594      -0.54116381685513       2.07677670329523
H        -1.37627770510831       0.67237179077981       1.53070152469613
H        -0.21131175381953       0.54728811743057      -2.07860945417092
H        -1.37091760360180      -0.67140919952408      -1.53497368284460
H         1.37234858726137      -1.53247231437807       0.67345850243179
H         0.21436086678294      -2.07791637174250      -0.54565141410523
H         1.37237701114494       1.53502405984433      -0.66973266389834
H         0.21137409030211       2.07880528808039       0.54725013328979
H        -2.46003237704267      -1.45758616793200       2.03441358276246
H        -2.64795834365874      -1.15461510869411       0.28698862806414
H        -1.43378114272032      -2.35821441849777       0.89074057758436
H        -2.45968348546927       1.45558264227853      -2.03729298956775
H        -2.64836330584703       1.15094765171897      -0.29062974482546
H        -1.43635694026929       2.35760169568839      -0.89149334768445
H         2.46216853297201      -2.03439223650043      -1.45381358286075
H         1.43781419666634      -0.89006189067676      -2.35612666985684
H         2.64893144346618      -0.28722269248443      -1.14959122094079
H         2.45778708533927       2.03702519727650       1.45865699463325
H         1.43334590979497       0.89176293292852       2.35966409204035
H         2.64681380017847       0.29007145711618       1.15489166703813
B         1.61273410401805      -3.00495201608662       4.44313213059356
F         1.28931688658166      -2.84077687343599       5.81650091013646
F         3.00768599764020      -3.23582762850838       4.30904587011224
F         1.25879352057402      -1.82971497237303       3.73098799542875
F         0.89605754372532      -4.11249585998219       3.91640693819428
