31
C9H20ClN optimized with ForceField in AMS.
N        -0.06245049154670       0.25763439113848       0.14988054612287
C        -1.02143381042181       1.22740786934415      -0.47030808541555
C        -0.47820824946182      -1.14719421792166      -0.15202853834041
C         1.28113732613394       0.53410739170898      -0.46197925489988
C        -2.50080390594302       0.96515508238454      -0.12886074323792
C        -1.94283800012161      -1.45097152552221       0.21111495439417
C        -2.89214692765720      -0.46886463407837      -0.46503856551185
C         0.00682683788865       0.48533338432987       1.61950531322704
C         2.45120969074929      -0.32880368925531       0.06956320204551
C         3.75704666933527       0.02315952252345      -0.63917819688711
H        -0.93608591079207       1.19684473884704      -1.58157895032204
H        -0.77559994928386       2.26991094377947      -0.16418497620984
H         0.14799404732682      -1.87501512840380       0.40738580298005
H        -0.34225771427585      -1.36556674477443      -1.23612472218977
H         1.55574209772144       1.60298929667788      -0.30286782863094
H         1.23253701502397       0.38719558807322      -1.56617365845237
H        -3.13608307256930       1.65652660861869      -0.72410510199374
H        -2.71196746790380       1.18078102107547       0.93882926793065
H        -2.08588650293519      -1.42230723335394       1.31201820684848
H        -2.19273302644344      -2.48026836287489      -0.12621944147107
H        -3.93092489782841      -0.66009025329384      -0.11825978782189
H        -2.86401738345422      -0.61694042445278      -1.56723536311969
H         0.61271674826211      -0.29543963877698       2.12586515451121
H         0.44914761662491       1.47989204853317       1.85048832144713
H        -0.98987477176520       0.44882027595500       2.09933727743499
H         2.60693568248511      -0.15268469530090       1.15322648680403
H         2.25715142599040      -1.40642465844762      -0.10358747310491
H         3.66840448191043      -0.16549720813580      -1.73016724792173
H         4.01381338832657       1.09042638359610      -0.46851763250099
H         4.57996228125262      -0.60608998961944      -0.23796578219718
Cl        3.47105529157198      -2.88830047387356       2.39658678608276
