37
C11H20F3NO2 optimized with DFTB in AMS.
C         3.42177534887715      -0.26254990999656      -0.04551815837975
C         2.29461622467215       0.55290127296454       0.57419738329588
H         1.23164929976245      -1.48761601667424      -1.29723156069928
H         0.84154002380167      -2.38304599677511       0.19225121711925
H         3.39487860938308      -2.34534756819368      -0.71276926359525
H         3.11070662546044      -2.10669500233226       1.02860034443394
H         4.34006260022165      -0.13166558447730       0.52767296460543
H         3.59632817793284       0.03465198427625      -1.08334237668569
H         2.47048088303332       0.70212720156717       1.64023408870418
H         2.15302861541529       1.51894609070281       0.08916311458560
H        -0.42655634184570      -1.17644758827411       1.67507432275355
C         0.44464789428873      -0.53282833399928       1.77170625782161
H         1.20483196268505      -1.01665518228616       2.38679409381636
H         0.16251916259767       0.41749942946478       2.22022621699293
C         0.05126506540436       0.48053566124435      -0.42758653157399
H        -0.15273610990991       1.42795667641367       0.07854041376324
H         0.55509953575412       0.69143594427564      -1.37503095143254
H        -1.05834577945403      -1.26135330045946      -1.08352862777953
H        -4.01288314246716       0.39435524128019      -2.69196569234868
C        -2.10340000595880       0.52401993788120      -1.69985339863659
H        -2.29451932696316       1.52870489783045      -1.30892992612527
H        -1.54526097642599       0.62840802807731      -2.63611989626180
C        -3.43083558561734      -0.17998756641790      -1.97181327267931
H        -4.00931115355029      -0.27414417935070      -1.05221564076963
N         1.02527211860968      -0.27112242703214       0.42493525907591
C         1.43298637907820      -1.56923172302225      -0.22626862031000
C         2.92520045505325      -1.70211741645949       0.03156737573491
H        -3.25865034180510      -1.17698019274332      -2.37879277687318
C        -1.25897743603476      -0.26189594426911      -0.68860938852612
H        -1.82431222741353      -0.37153113095020       0.24038641230434
C         4.04094919703706      -1.08771467966686       3.72025310067202
O         3.11939872973818      -0.91368599706722       2.90168486400808
O         4.11890788772627      -0.94958831804922       4.91885664061133
C         5.38896626483587      -1.59181134902309       2.95859034377857
F         5.84292249551319      -0.63120047752046       2.10936570527643
F         5.12624491272547      -2.66833147647197       2.17530287435973
F         6.41208756323865      -1.92493824016632       3.74798166636333
