18
C4H12ClN optimized with ADF in AMS.
N        -0.07007591225643       0.05121782649585      -0.06007447598749
C        -0.79991987113226      -1.15915387000316       0.41129823125982
C         0.60577885991756       0.73249977839601       1.10179030561270
C        -1.03035198084511       1.02001613673158      -0.70022881595322
C         0.97643676378573      -0.33538090238399      -1.07258610784514
H        -0.08119865574086      -1.84598441902685       0.87673620131912
H        -1.55813901494719      -0.85196352935985       1.14350540632473
H        -1.28011886540799      -1.64078506520189      -0.45075926852081
H         1.12458230852567       1.62410733853398       0.68034792497526
H        -0.16875579369564       1.01119727171661       1.82905643342433
H         1.31092551898431       0.01938211478791       1.54938858279961
H        -0.41938178568382       1.89305543777159      -1.02619993367415
H        -1.50966022278360       0.51247855130972      -1.54830942501906
H        -1.78056839982944       1.30051691419570       0.05124284194116
H         1.47802271715807       0.61182989459406      -1.37720458721892
H         1.67335991431620      -1.03424262406653      -0.59107531124699
H         0.46835938045176      -0.82238267118333      -1.91596955385626
Cl        1.63607390938305       2.88023400119259      -1.15810275933470
