48
C12H26F2N2O4S2 optimized with DFTB in AMS.
N         0.04383756733079       0.14488689250582      -0.32062657454112
C        -0.23142333597739      -0.64177661847712      -1.57324173294084
C        -1.24477457967184       0.71555472903583       0.19295662806939
C         0.67706573168596      -0.72060408229406       0.73807030058997
C         0.94982972519183       1.28380957986125      -0.71993018947622
C        -1.29980662814526      -1.71074475994780      -1.39984085135508
C        -2.32579144266236      -0.33736234954984       0.41100758670912
C        -2.60152791668091      -1.10825194054141      -0.87859429199910
C         2.09137433466320      -1.20009197019059       0.41922762180149
C         1.41082395092051       2.18618867891061       0.42154011021854
C         2.52826306551807      -2.23560594748914       1.46248274945352
C         2.36677219911822       3.24021431352291      -0.13895527447664
C         3.96276260111890      -2.68786195800362       1.19623604805127
H         0.70519006699767      -1.09814655188525      -1.88481744395347
H        -0.53743285384065       0.07405862298189      -2.33978567660174
H        -1.58462023304175       1.44569727603605      -0.54692874504826
H        -1.02984185763843       1.23481258350081       1.12875468480754
H         0.02257417181484      -1.58283584825736       0.87858432642689
H         0.67527464552383      -0.14247885651915       1.66561667004290
H         0.39685253159507       1.87391210213452      -1.45550775824900
H         1.81287960192095       0.84188261255740      -1.22662665149572
H        -0.95372320801237      -2.50083786696360      -0.72820883832188
H        -1.46315107703668      -2.16095769697010      -2.38219811646797
H        -3.22929315067883       0.18547579238032       0.73572319911146
H        -2.03579381400170      -1.02611770215795       1.20898964585492
H        -3.02148624532344      -0.43030293913063      -1.62845002419578
H        -3.33011193560949      -1.89916851670409      -0.68706258873413
H         2.79105524551169      -0.36282430564536       0.43646205775125
H         2.13309662575245      -1.65607718117963      -0.57140802055922
H         0.55609847147607       2.68157717017772       0.89207130694279
H         1.93306825102462       1.60731558914207       1.18637259958006
H         1.85386032990507      -3.09828452363871       1.42446208248530
H         2.45771769945490      -1.79786188344692       2.46466691541147
H         2.68494823112863       3.90641600433368       0.66196774672716
H         3.24687401581752       2.76084145028341      -0.56612984945305
H         1.87604526168918       3.83100494400832      -0.91296081176991
H         4.64561676355421      -1.84181042478655       1.27127711342525
H         4.04834846701585      -3.11059536807887       0.19580078857597
H         4.25523964163709      -3.44280002905054       1.92572293247713
N         3.07178167007412       0.14967467385496      -2.71469339508508
S         2.56962119580281      -0.92059880175427      -3.77160936730856
S         4.44518504250444      -0.13821568107747      -1.95546923750344
F         2.22322081416220      -2.22714275564250      -2.82695649557646
F         5.57022843636481       0.31635382010075      -3.00732555439817
O         1.27304009176225      -0.49131888039696      -4.20231351126711
O         3.50223974849652      -1.41223460663114      -4.72392714751030
O         4.74092060774182      -1.50171172458688      -1.65675269122987
O         4.52558774014505       0.82576574526920      -0.89817420129521
