43
C11H17F6N3O4S2 optimized with ForceField in AMS.
N         0.98613955028902       0.36010341355051       0.48220064690290
N        -1.02681104686170       0.34977852797815      -0.46095967317029
C         2.24105051169580      -0.10705718864988       1.06746457701344
C        -2.27364792276033      -0.12997320210487      -1.05322323846107
C        -0.01921142516351      -0.40539012213039       0.01655404565377
C         3.40984468546171       0.10764163889489       0.10089899456083
C        -3.44973901856752       0.06482762877386      -0.09036639411600
C         0.60418644476615       1.63924155397238       0.29064917042970
C        -0.64708124013939       1.63283047543531      -0.29263130607048
C         3.23884153539795      -0.69574605552019      -1.18663060630929
C        -3.28133892818738      -0.75300019977368       1.18958610776132
H         2.16511388055087      -1.18727497686156       1.32248362952032
H         2.43490676095932       0.44585683615591       2.01193301023278
H        -2.18256221994956      -1.20749957834761      -1.31451060553691
H        -2.47049685089876       0.42502707164899      -1.99595321053644
H        -0.01627901554981      -1.48847461344720       0.02220390939741
H         3.50274471202924       1.18699209417467      -0.14682744596357
H         4.35011978454748      -0.21232186775381       0.59956143099914
H        -3.55225497464792       1.14070782132577       0.16853508198964
H        -4.38398938043040      -0.25647122407460      -0.59921307543066
H         1.19089055561902       2.51000543445196       0.55359155324190
H        -1.23236506964394       2.49766291156840      -0.57728863244037
H         2.35492564894642      -0.33915447354124      -1.75648174789615
H         3.11943256306092      -1.77647384855567      -0.95900845619323
H         4.13687308305333      -0.56290844840076      -1.82043879514081
H        -2.41785121959822      -0.37785962063899       1.77878155292703
H        -3.12106397150578      -1.82525088759495       0.94716068444541
H        -4.19610622846097      -0.66234239063267       1.81175777715882
N         5.62946654188621      -1.54476015162293      -5.72981563848122
S         4.21937675196920      -0.72612139283410      -5.55976503311479
S         6.25103879584401      -2.50079248594820      -4.55205172206584
C         4.56311247694344       0.92326231709468      -4.98086453621984
C         5.74095592161627      -4.18420710334814      -4.82894609683655
O         3.54018072318130      -0.63557603863119      -6.89664167408652
O         3.31416905569499      -1.42310176847239      -4.58210800559407
O         5.77668779734612      -2.05480671588309      -3.19777567662707
O         7.75074113342495      -2.43431350889576      -4.60458543581113
F         3.37842529218596       1.62239709269876      -4.84938705159068
F         5.37841222649456       1.57069752636459      -5.88946716672897
F         5.20021066425269       0.86825879690533      -3.75657773677295
F         6.22488221065061      -4.98543052779753      -3.81238260045242
F         6.24272322905716      -4.62580247135123      -6.03833517707246
F         4.36131156154050      -4.25747080918154      -4.85155407601464
