59
C17H21F18N2P optimized with ForceField in AMS.
N        -1.19103172563669       1.22011493166026      -0.25679379201608
N        -2.58589129987768      -0.48050442071461       0.07147139365955
C         1.18221955519939       1.89939377495241      -0.19882198836342
C         1.72052468415252       0.47465836034277      -0.39414780600353
C        -0.18460056204071       2.08514876193231      -0.86950391245343
C         3.12457144812143       0.32350018841949       0.20042270651213
C         3.63833725581233      -1.11069017823056       0.02652628743404
C        -1.71168952617681       0.09220947484313      -0.77849551371471
C        -1.75276095659811       1.36513786268670       0.96039380449326
C        -2.61879553183453       0.30979348738905       1.16404877705917
C        -3.29697306321001      -1.74178803994132      -0.12166341108317
C         5.03794558772061      -1.27160140897298       0.61160013965322
C        -4.78432134967056      -1.48765761899018      -0.33084270809749
H         1.89412260065737       2.62666864085521      -0.64668839437436
H         1.09752852243503       2.12544286250237       0.88669463668459
H         1.75508351723712       0.23900055772970      -1.48078125876910
H         1.03826748332665      -0.24936703954828       0.10258006805417
H        -0.50434753782816       3.14525860425511      -0.77285713858884
H        -0.09812771771631       1.86073266934216      -1.95564922955765
H         3.09521937633380       0.57549358834581       1.28355473602374
H         3.81798735382652       1.02845113864529      -0.30918642265415
H         3.66876841832300      -1.37002524427990      -1.05437115890432
H         2.95147438526767      -1.81950739873848       0.53875518445538
H        -1.44146518897352      -0.31532631203790      -1.74496519889447
H        -1.53988277828058       2.16965126344269       1.65236254965134
H        -3.21218906112787       0.12327018407843       2.04974130622723
H        -2.89479430068058      -2.27347829201241      -1.01174129193380
H        -3.14633192891427      -2.39388776225624       0.76570300714107
H         5.03082263118918      -1.03994119023584       1.69802521587661
H         5.75174357377970      -0.59474155238950       0.09567408422483
H         5.37950051228346      -2.31924230570067       0.47384904233486
H        -5.22027722907160      -0.99195293109313       0.56210477904638
H        -5.30873122444935      -2.45219848782695      -0.49733353746383
H        -4.93387570391835      -0.83918465880543      -1.21987049297997
P        -7.84892356937965      -1.93261975918647      -4.18463519015430
F        -6.21021352432633      -1.79004983701637      -3.66913641856210
F        -8.02636162882232      -0.73464084764432      -5.41005316684213
F        -7.43089841683746      -3.13729969187058      -3.02915318565779
C        -7.00818568795095      -2.72868446440936      -5.73002903325743
C        -7.86833041228987      -0.33497037915651      -3.08771997291907
C        -9.63098771558077      -2.59603682672126      -3.93275881763599
C        -6.34320876100197      -4.10597621498004      -5.51129141208637
C        -9.16167986443116       0.52539920215148      -3.08674003661260
C        -9.92092708469284      -4.05179862786329      -4.33493220365454
F        -6.00372417493054      -1.88378377265967      -6.18897982805352
F        -7.93063079355095      -2.84799797866017      -6.75648708102607
F        -6.83712303809491       0.51338792490246      -3.47999696227070
F        -7.62687716773426      -0.70650502993890      -1.77509976145617
F       -10.49717383593570      -1.78708841197855      -4.64682445337002
F        -9.95124561560912      -2.50184478840972      -2.58984921712193
F        -5.74383850078276      -4.50288500283111      -6.69366784897967
F        -7.25834347699347      -5.07226113190990      -5.16250394688415
F        -5.36416470113764      -4.04206328067882      -4.53694014682543
F        -8.88843730721638       1.73148814068126      -2.46517073675571
F        -9.61151677222788       0.80486531998696      -4.36303917060927
F       -10.17759048077067      -0.07528788071745      -2.37232809340227
F        -9.67231286761345      -4.27101255870301      -5.67297437291225
F       -11.26189110452115      -4.31251462566785      -4.11385837363436
F        -9.19315285402782      -4.93453482296729      -3.55899734359543
