55
C17H35NO2 optimized with ADF in AMS.
N        -0.49499172565592       0.88957899143742      -0.14607267618153
C        -0.74626398390336       1.38424769775378       1.27300947550535
C        -1.80988281288190       0.67688536166379      -0.86154463053562
C         0.25532922246363       1.96949999824666      -0.90932033439047
C         0.32463202726290      -0.39117097498260      -0.06259320202123
C        -1.71643231805924       0.50015517554070       2.03829976488584
C        -2.75397024309039      -0.24993316740115      -0.11601365042053
C        -3.02943944870627       0.27378299853290       1.29269181838124
C         1.63768385049503       2.28788342891716      -0.38225394453369
C         0.80125414512634      -0.96079185696165      -1.38443524138464
C         2.32917398308254       3.31629715812916      -1.27712239462415
C         1.70597885559229      -2.16260671079506      -1.08996708354851
C         3.76811852004150       3.59640560161151      -0.82899951866790
C         2.31033639539218      -2.76911967757800      -2.35263779627270
C         4.70075857453361       2.39612236596134      -0.98859993313821
C         3.27156706842815      -3.91324701625087      -2.04062146686834
H        -1.15049352013915       2.40465153132234       1.16206472604158
H         0.24602453563032       1.38688999764229       1.77323754324066
H        -1.57258454891222       0.30127169432247      -1.86698888973039
H        -2.26493062915404       1.67622953511321      -0.96184992776454
H        -0.40313413766115       2.85404871654216      -0.88035723549949
H         0.30093626351010       1.62545646525873      -1.95442767032983
H        -0.29632983780321      -1.12190444344221       0.46956292729694
H         1.20387116746210      -0.15738662858806       0.56999057664089
H        -1.89698864333634       0.99686108549929       3.00570613856976
H        -1.23049018964257      -0.45947533373929       2.27979190165057
H        -2.33674648671187      -1.26982085644414      -0.07548448316876
H        -3.68543739798878      -0.31629624483524      -0.70224453446268
H        -3.58399020737939       1.22810149718857       1.22002522191280
H        -3.67134164700425      -0.43203213971004       1.84341220692031
H         1.58100981371331       2.67505952500919       0.64787755242291
H         2.24537370393559       1.37164270084138      -0.30706540797985
H        -0.03187213831890      -1.26760561770680      -2.04369600346204
H         1.40301052389413      -0.21441670504477      -1.92928245508922
H         1.75513034811732       4.26146053708757      -1.27915666386291
H         2.34309089606032       2.95434443907963      -2.32398910870741
H         2.50589876307772      -1.81981422833442      -0.40985421188912
H         1.13151516350609      -2.93772990396181      -0.54829852426622
H         3.75414126367706       3.91424244150132       0.22923004369650
H         4.15684283888882       4.45187360030772      -1.40870639334535
H         2.84925705519336      -1.97836352800678      -2.90574108656180
H         1.50385956427750      -3.12616024263573      -3.02040194520625
H         5.72983206319402       2.66354615855057      -0.70118811450311
H         4.38799063115699       1.54484965004628      -0.36233240353621
H         4.72377543918631       2.06327647973709      -2.04071884917254
H         3.69711079784286      -4.34391294083991      -2.96020505353367
H         4.10313120891824      -3.55732469129329      -1.41216013947863
H         2.75909959620665      -4.71989335001347      -1.49163244860958
C         4.20013722298197       0.31611070522899       3.08414283139487
C         3.00837591955147       0.35966618501351       2.12057208267688
O         1.92114688687953       0.84531724066460       2.56375055129441
O         3.21674539147851      -0.07413277956095       0.94283176472851
H         3.87240304901380       0.39850784518198       4.12906527619314
H         4.78432676963179      -0.60332333653138       2.93378351718521
H         4.86749142344488       1.16432412492431       2.86113827830877
