42
C12H16F6N2O4S2 optimized with ADF in AMS.
N         2.26888915000721       1.03788693471189      -0.79290442625296
C        -0.19081168535393       0.70529389867933      -0.62327475655199
C        -1.53391452072995       0.99942118534174      -1.28823424407359
C         0.95149844079360       1.34400082536901      -1.40352894705303
C        -2.72044790906598       0.42846524634309      -0.51416356830592
C        -4.05223750284633       0.72990870552949      -1.19589816979486
C         3.17704225017476       0.31600332733387      -1.48319684571388
C         2.56219521521055       1.54597470142938       0.42633251303051
C         4.40932460431319       0.02755931990661      -0.92026665787635
C         3.78456465422690       1.30647176416300       1.01183246318954
C         4.72416557851449       0.53185888748489       0.33167007265262
H        -0.02466352876720      -0.38524976711168      -0.56080291408583
H        -0.20562964754467       1.08704585612267       0.41340795115004
H        -1.53187984911402       0.58832679961164      -2.31413955359939
H        -1.65820898132174       2.09315529734938      -1.39190326682068
H         0.99270272940753       0.98147845788747      -2.43932332143033
H         0.86705743896145       2.44066740750899      -1.44768106891312
H        -2.72345934249220       0.84688016402069       0.50917229375065
H        -2.59559604298836      -0.66433602895399      -0.40491919649774
H        -4.20558168623343       1.81650403575429      -1.29483606184718
H        -4.89804235112639       0.31939468870362      -0.62511337962528
H        -4.08251434351066       0.29524077262309      -2.20790403265011
H         2.88623662350270       0.00698241577919      -2.48602900080820
H         1.79272994564938       2.16095699606407       0.88621280372009
H         5.12960538856427      -0.54678647360114      -1.50149222639951
H         4.00777441421240       1.75268361343856       1.97992184022760
H         5.70807928500222       0.35423783524262       0.76716851595596
N         3.83000717446453       2.48869948459588      -2.99785379458283
S         2.77350851075175       2.64725184173712      -4.20320262502721
S         4.75045237592232       3.63928003706126      -2.34278401533615
C         3.71473220558839       3.07125558129767      -5.79396060647926
C         3.59261271733723       4.88787246290994      -1.49687455844074
O         2.26728598417396       1.28972056493432      -4.44364189004240
O         1.82014612868990       3.74062690808568      -4.04012715452961
O         5.49647835169482       4.44843483135352      -3.29345517872802
O         5.42490956759748       3.00864304762515      -1.21038448850209
F         2.90259368781770       2.80078308330222      -6.84553791152933
F         4.83388054914681       2.32241913129291      -5.90670564652159
F         4.04298524076886       4.37446087498116      -5.82638731570629
F         4.29379547610882       5.55220692536264      -0.54580782763727
F         2.54952408506199       4.25490495659876      -0.86936750900511
F         3.08788370732961       5.77999615463002      -2.36218599330913
