41
C11H22F3NO3S optimized with ADF in AMS.
N        -0.26990071910650       0.15643916691169      -0.56709306796916
C        -0.99594611386368       0.35620526813804      -1.88907113743070
C        -0.98400706443497       1.13249979650131       0.34069427396912
C         1.19827435889196       0.48797385594392      -0.70884279755520
C        -2.46643167748141       0.52616914306307      -1.50605870171629
C        -2.46210958627944       1.02260530763489      -0.03516028384427
C        -0.48475475015273      -1.25743415206906      -0.04867753459546
C         1.99197031637378       0.43434345990953       0.58280569834020
C         0.23927888936348      -2.32896079891745      -0.83534988235630
C         3.45619141346140       0.76573768776403       0.27724359080641
C         4.33314886539200       0.72138383501559       1.52295957041196
H        -0.76202187843978      -0.46701850844940      -2.57912098760319
H        -0.56467294790004       1.26418297171526      -2.33492594572045
H        -0.75584018823857       0.89821891489009       1.38817200327204
H        -0.57493219308090       2.12439618658376       0.09734287552796
H         1.62369499089632      -0.19803588372105      -1.45690101202609
H         1.23218974819441       1.49238874833562      -1.15801201982799
H        -2.94702057166608       1.24365834566885      -2.18555483173893
H        -3.01875402732671      -0.42057052063073      -1.60120766059706
H        -2.98556396882713       0.31571227319201       0.62603065131504
H        -2.95578304645747       1.99826879274394       0.08430777779809
H        -0.16749439189208      -1.24402002199419       1.00527204951171
H        -1.57212562501292      -1.41947325934328      -0.06801864206864
H         1.60131813946911       1.14819393328139       1.33103487091652
H         1.94630563549622      -0.57284597655146       1.03349446355914
H        -0.07203960931644      -3.30381262159677      -0.42896773089405
H         1.33113906643514      -2.25335570834456      -0.74344474925873
H         0.00229567220611      -2.30835675830877      -1.90970632203569
H         3.82792113341106       0.05766164879991      -0.48344310432696
H         3.51182170828417       1.76691942604801      -0.18588145166895
H         4.30936538601146      -0.27621163033897       1.99004323214277
H         3.99702119252271       1.45373656071648       2.27469829708685
H         5.37999982338552       0.95006509797025       1.27236927326483
S         1.65568770882703      -0.59742380988391      -4.06772006661256
O         0.41174701648148      -1.39801450968485      -4.15378849961899
O         2.63895545057776      -1.11152745037418      -3.08796913291843
O         1.44760920463606       0.86242267960879      -4.02671194458293
C         2.48288571919795      -0.89401379436222      -5.72579648062498
F         1.70551821834167      -0.43360386838364      -6.74139734139421
F         2.70461502443969      -2.21872655697763      -5.93564611218464
F         3.68062167248036      -0.25442929560430      -5.79190390795177
