37
C11H23NO2 optimized with ADF in AMS.
N        -0.16393914612289       0.12791604696437      -0.45282368987316
C        -0.49254251358167      -0.27937555489930      -1.89060908983779
C        -1.32232761951710      -0.43773581582104       0.38561784362671
C        -2.00776903287433      -0.27547052764518      -1.94890781066109
C        -2.39888853758358      -0.89865560889698      -0.60403661312438
C         1.13938816603201      -0.50963358733562      -0.01266070911524
C        -0.12736076951654       1.63543856346148      -0.36582075523117
C         2.33891686512705      -0.10909386110537      -0.85136209832155
C         0.28239292645887       2.19108733042526       0.98436691462894
C         3.48985101464833      -1.07795299827902      -0.57568711676889
H        -0.06043672587612      -1.30025503513375      -2.02298040656586
H        -0.00778037737636       0.43105526674690      -2.57294246340847
H        -1.65779155462562       0.35688078511082       1.06403476723081
H        -0.92469996138348      -1.29636537767214       0.94086606406384
H        -2.36075708772780      -0.87387878429867      -2.80170717355714
H        -2.41466113560997       0.74448275560578      -2.06252632210114
H        -3.40872771867120      -0.61055680447373      -0.27625889599514
H        -2.32557378299782      -1.99484004695852      -0.67338112399484
H         0.93285724884667      -1.59251583873330      -0.10350571253909
H         1.27665904938495      -0.25696431191652       1.05012851139992
H         0.57332280342447       1.97210396649274      -1.14357965134586
H        -1.13459214676324       1.97818090407190      -0.64555386807389
H         2.08232303276446      -0.18989482328779      -1.91919705248727
H         2.64966460250907       0.93255782671888      -0.65097655394353
H        -0.34104347873355       1.81124411268665       1.80638430131307
H         1.33428889373413       1.97289548938106       1.21398964307814
H         0.16528787885648       3.28511285768464       0.95627252686404
H         3.74772717041614      -1.10802427958843       0.49497070524512
H         3.18652120394218      -2.08617414583694      -0.89746701835894
H         4.38970354366824      -0.78439650822592      -1.13555072005843
C         0.24723445277186      -5.16302717382590      -1.43548207860809
C         0.26340715246119      -3.64702788052299      -1.20886258933265
O         0.90184791289073      -2.94671491059973      -2.05559923161224
O        -0.34435399148853      -3.20629080971668      -0.18115117237859
H         0.24226859447510      -5.39247439706388      -2.51019940273489
H         1.16648813689118      -5.59536399477331      -1.00875455456372
H        -0.61228317555333      -5.62993402143977      -0.93530466385755
