33
C9H15F3N2O3S optimized with ForceField in AMS.
N        -0.67014560400945      -0.90119064452622       0.41437413558644
N         1.51470425859650      -0.49821012338468       0.33337309640913
C        -2.07607679204257      -0.82315081425267       0.80673855792153
C        -2.90790165764247      -0.09496028555929      -0.25720690306387
C         0.36447127757535      -0.26081269104606       0.99250962878839
C        -0.15567438857287      -1.57355702694661      -0.63570954743298
C         2.82058502720149       0.09140282299001       0.61356384754161
C         1.19913371705402      -1.31925465985349      -0.68879881640920
C        -2.44912998845960       1.34927011729133      -0.45711010514871
C         3.12626783483232       1.19520780519806      -0.39223498122593
H        -2.17344991075244      -0.29030026215416       1.77847839303483
H        -2.47354892410505      -1.85135560788695       0.94642567968954
H        -2.84472397776777      -0.63871267897248      -1.22436316608613
H        -3.97217930499212      -0.09097236978649       0.06242514965324
H         0.27587816358947       0.39331005873332       1.85137787438745
H        -0.72598458098230      -2.18228951849302      -1.32524614776911
H         2.83095917550713       0.52259462196574       1.63841463777134
H         3.60528710084210      -0.69331037687172       0.56206863386388
H         1.89784598321542      -1.68972660051790      -1.42768287677883
H        -1.41777999041018       1.37677133179489      -0.86861928764086
H        -2.47458072152257       1.90139581531208       0.50637356496026
H        -3.12557099332885       1.85756762216701      -1.17598863226055
H         3.14700485805257       0.78177360550979      -1.42278925573225
H         4.11532462459353       1.64539037503893      -0.16582664397630
H         2.34887589971822       1.98682808514324      -0.33332400969389
S         2.08304729487837      -3.70692975227767       3.27496593114534
O         1.13414579909319      -2.50110434389718       3.33933017621223
O         1.41358469886031      -4.72742919417853       4.20749827293058
O         3.29886680802505      -3.23849272879267       4.08820896206594
C         2.45578172100261      -4.31516723500355       1.60632608881780
F         3.13359919664824      -3.34104188735899       0.90038187961091
F         1.27746969056790      -4.62146155267096       0.95292117573611
F         3.24215679363444      -5.44792039101313       1.69345129139203
