22
C4H12BF4N optimized with ForceField in AMS.
N        -0.00075006525641      -0.00060105311658       0.00043017563366
C        -0.91333697366877      -1.11453738848283       0.34315636058660
C         0.65604421107073       0.49677325434665       1.23069059099297
C        -0.77339185364098       1.09705601795186      -0.62440599020461
C         1.02859827170717      -0.48126141961861      -0.94827187527882
H        -0.35791000698816      -1.95518282225263       0.81678640800341
H        -1.70085309167720      -0.78145648482275       1.05595261230270
H        -1.42054566605236      -1.50996511042730      -0.56563113804738
H         1.35052979082331       1.33671444213855       1.00242507843903
H        -0.09567965586811       0.86594561465263       1.96416720648823
H         1.24609929497773      -0.30877411521247       1.72300878216177
H        -0.11144426485757       1.95227285321262      -0.88965101056124
H        -1.27556479375048       0.75288342522382      -1.55654861033116
H        -1.55966230548974       1.47628808457623       0.06652427628645
H         1.72904245590276       0.33788131218312      -1.22030773417994
H         1.62816438449190      -1.30815680519438      -0.50534409438043
H         0.56427623291747      -0.86020000728071      -1.88669628479243
B         4.12067303173896       1.10587786562387      -4.22183264861223
F         4.78591011863601      -0.14375297872921      -4.32985090851324
F         3.22407402970328       1.26176217276673      -5.31159514382354
F         5.07632907591000       2.15548951415527      -4.24008341762846
F         3.39595502577043       1.15106682250612      -3.00372337824132
