48
C14H25F3N2O3S optimized with ADF in AMS.
N         0.16604658991142       2.28997231174160       0.32897460277773
N        -1.83696484530381       2.09717603408880      -0.48944089359250
C         1.57830976389639       2.02574192501059       0.63739556772464
C        -3.01886618563085       1.64877565135083      -1.24700572033318
C         1.71257767520171       0.90971485206697       1.67137023560981
C        -2.69896742730683       0.72980222695055      -2.41717919691506
C         1.46993718924848      -0.47710420280020       1.08364273966213
C        -2.35699377472541      -0.71380800269043      -2.03054782358750
C        -0.56537418776800       1.70380080363104      -0.63144893784559
C        -0.66947118326512       3.04892351051725       1.11960226625158
C        -1.92468084895665       2.92820757235704       0.60541561121089
C         1.37724795541521      -1.55700680658558       2.15964704199949
C        -3.53331586315698      -1.46580195321686      -1.40833103231856
C         1.00750003958368      -2.91717387401903       1.57595380648146
C        -3.14785439461957      -2.88350178613760      -0.99772073458755
H         1.99839651795901       2.97810320161122       0.99562154378102
H         2.08161479182812       1.77083778104041      -0.30820163046773
H        -3.51784493157001       2.56573262703400      -1.59720427640081
H        -3.66273902223463       1.15237655147034      -0.50310765099026
H         0.98198472171886       1.08980346013314       2.48062614359775
H         2.72179542599970       0.97521617582784       2.11510929191562
H        -3.60248092712655       0.72057553873957      -3.05205484840521
H        -1.90739499594349       1.18390101928977      -3.04206319467990
H         2.26735729827811      -0.72293155296961       0.35512019653918
H         0.50334829999804      -0.47787516248231       0.55435465909604
H        -1.52991663767920      -0.74242167861266      -1.30301394857889
H        -2.01618923314005      -1.24720140122361      -2.93620333896308
H        -0.18773886499432       1.00928718938608      -1.36739457694190
H        -0.30792690112123       3.56727029617913       1.99793105924196
H        -2.87706704504304       3.30161308042319       0.95842708513416
H         0.60080910564296      -1.24926152444259       2.88073814719381
H         2.33200103118540      -1.61915463664062       2.71415787461337
H        -3.87731017436203      -0.92990438158411      -0.50867844552674
H        -4.37542370613693      -1.48617625583395      -2.12560677440787
H         1.76263932405292      -3.26713862366452       0.85226333064713
H         0.03761359361930      -2.84937324350242       1.05895989680338
H         0.91447189248901      -3.67949864936859       2.36433557096872
H        -2.35990688340984      -2.84703691095779      -0.23018255527726
H        -2.77494181429349      -3.46314343553065      -1.85811067162704
H        -4.00658171438421      -3.42121268151425      -0.56889629278582
S        -2.36821778775668       0.08409178629949       2.30230602558965
O        -3.62582006272174       0.79371745384381       1.98830021941199
O        -1.47868997607818       0.74594719534981       3.27135381069673
O        -1.68704105678753      -0.47925012352261       1.11329637371258
C        -2.93705676198402      -1.46248145062958       3.20016269513583
F        -3.74670721985061      -2.21746656610683       2.40682216277823
F        -3.62549542160708      -1.15726113580798       4.32963750539156
F        -1.87146983527025      -2.23359803859808       3.55405616866602
