24
C6H15NO2 optimized with ADF in AMS.
N         0.12664796853569       0.37866561667026       0.03093858825580
C         0.23877109462951      -1.10837314872535       0.23641991143041
C         0.82005451319451       1.06876757417455       1.17624440180701
C        -1.30632909239107       0.78318641789146      -0.02536567637494
C         0.82498862537590       0.74943901224838      -1.25011474112117
H         1.31973602924046      -1.32654214577387       0.37154966026488
H        -0.31116903561399      -1.36885495263225       1.15092514257664
H        -0.20448310218353      -1.60965841562667      -0.63378110483483
H         0.84171053675630       2.14549162504009       0.96611760875746
H         0.25138103079878       0.86133251880425       2.09283755811544
H         1.83331306814336       0.62217086160454       1.24008101265937
H        -1.36142453870170       1.87209664314288      -0.15265343756005
H        -1.78413553037760       0.27996555337935      -0.87629357317015
H        -1.79668271791723       0.48839830574672       0.91165865840900
H         0.65370491477473       1.81981086732436      -1.42959710676100
H         1.92157329359395       0.54742164006653      -1.10776306787126
H         0.38341180372528       0.15468482540926      -2.06108081181616
C         5.34700694457041      -0.94815679426265       0.40526911678693
C         3.89947958930311      -0.46741408683719       0.26854274894214
O         3.65999920782101       0.37317161091653      -0.64893817500786
O         3.05728369812659      -0.93706342586398       1.10421568180701
H         5.81774579132249      -1.02376860014629      -0.58496273743737
H         5.91512087268188      -0.20552647704113       0.98803303232475
H         5.39540611219116      -1.91038859890978       0.93295315241791
