23
C5H9F6N2P optimized with ADF in AMS.
N         0.79852339351014       0.06898455255878       0.43809970156484
N        -1.30921469624762       0.11185300872055      -0.06992233983078
C        -0.31831375047542      -0.66471697439549       0.38348574720213
C         0.50641697221803       1.35675240247111       0.04309062578070
C        -0.81940838782176       1.38395899937810      -0.27558404389415
C         2.05250681704925      -0.35778426143225       1.05260618391050
C        -2.72102333592148      -0.26366217353957      -0.08999304481433
H        -0.42832847073648      -1.67729150489414       0.75111743770925
H         1.25689521960099       2.13775162665219       0.03737396129035
H        -1.45352900560825       2.19325596865296      -0.61549108790163
H         2.11521815303715      -1.45020368995222       1.01825137464515
H         2.88752203100901       0.08574729348562       0.49729925770995
H         2.04393260745534      -0.03819131504098       2.10241837327456
H        -3.13410250901984      -0.09170852192896       0.91209353021970
H        -3.23187222987898       0.34017018764833      -0.84859036888524
H        -2.80998987219880      -1.32643407120683      -0.34037505532596
P        -1.07902378092377      -0.79439759583174       3.77239859949947
F        -1.31187951469392      -2.13381727197818       4.67753772482641
F        -2.02137963876926      -1.46319074510733       2.54218183140350
F        -2.40964607581613      -0.07653552416440       4.39980976630668
F        -0.83015164713357       0.54338015036247       2.78709704526281
F        -0.10632004758741      -0.13017296023679       4.90972833401705
F         0.26175453435280      -1.51741597942123       3.04922439762905
