40
C10H22F6NP optimized with ADF in AMS.
N        -1.08410515042381       0.30826096126136       0.35984807487432
C        -1.59989856934617      -0.72518760409469      -0.61305193801655
C        -2.09230475421213       0.23848642798410       1.49105258973844
C         0.30006186801219      -0.02746170454407       0.88767343234084
C        -3.12309133756350      -0.58486699427348      -0.57671797009695
C        -3.44469317002053       0.04181577232469       0.80677426707763
C        -1.12155574880776       1.67653370192526      -0.25847468647078
C         1.41169360990197       0.03976979516080      -0.13910032150543
C         2.73337698381445      -0.35174456005614       0.52881125903730
C         3.92583189169083      -0.21484516705365      -0.41466648749731
C         5.24168087007145      -0.59990732953028       0.25482887336745
H        -1.27358652257910      -1.70222001681746      -0.22669516581183
H        -1.14722414628885      -0.55573652335576      -1.59737594426179
H        -1.98297115907257       1.14224646683671       2.10387383391041
H        -1.80978621886494      -0.63807175240043       2.09250807134164
H         0.20743541785075      -1.04458759818232       1.30366273715716
H         0.49134543928811       0.67666194758509       1.70859791547330
H        -3.59530308008388      -1.56837000564919      -0.70897188310092
H        -3.47994835977365       0.05882306519082      -1.39322771125651
H        -3.97558275034776       0.99792731152752       0.69284646905617
H        -4.08320088730656      -0.61167868435412       1.41776147276994
H        -0.48097380336793       1.67701609498384      -1.14656598578048
H        -2.15689991661713       1.90172346852064      -0.54107847289923
H        -0.74443342950701       2.39420264058154       0.48038995010951
H         1.21323374289466      -0.62948892477717      -0.99612873550289
H         1.51395681126910       1.07106871175059      -0.51064402092304
H         2.67098080667281      -1.39356229520065       0.89774417728512
H         2.88431634551000       0.29756624590173       1.40895845365470
H         3.98266030635868       0.83171163126002      -0.76479135868106
H         3.76396665738935      -0.84290390304888      -1.31114985427063
H         5.43070562954832       0.03667933313638       1.13378179382493
H         6.09203447677087      -0.48676311141087      -0.43457790923632
H         5.21985245533558      -1.64781356746828       0.59607447832893
P         1.14303935138366       3.29794317552368       2.74483657002023
F        -0.38358359875706       2.54700236960595       2.68381879399523
F         0.91806752654461       3.60065665349414       4.33402569433489
F         1.79704908283607       1.80635150462799       3.10656927231240
F         2.62602745496762       3.98009069277353       2.75655019507332
F         1.32303137873729       2.92792219686240       1.11177764444123
F         0.42765122879199       4.71397038369865       2.32437050958661
