54
C14H26F6N2O4S2 optimized with ADF in AMS.
N         1.70817996189065      -0.79105504901401       0.47348770559261
C         2.81075257962142      -0.62964744004102      -0.58562062722728
C         2.45091465623035      -1.22979104651241       1.73131928659604
C         1.03734638988846       0.53868591416354       0.74629702889713
C         0.72112092035547      -1.85640572177544       0.03373030465090
C         4.15134697437990      -0.63940432094543       0.16235153032979
C         3.79658945621813      -0.53784544558507       1.65186802216331
C         0.16553396865175       1.07941964751497      -0.37458767157757
C        -0.33914452918782      -2.19300325881874       1.06348089487314
C        -0.24608110563624       2.52521119995979      -0.07814610042057
C        -1.19932421753947      -3.35448831502942       0.55605789349757
C        -1.15422286900741       3.10223051166048      -1.16025544501113
C        -2.24786975479387      -3.77617731998113       1.58055052143019
H         2.61477805966858       0.30345086863218      -1.12711957027959
H         2.73086565498808      -1.48241495903517      -1.27135509745007
H         2.55705185296028      -2.31994460790381       1.65689316840613
H         1.84454948862550      -0.98380938108651       2.61151839053520
H         0.44021381349009       0.40500230348259       1.66001965428774
H         1.85182626325836       1.24264726082455       0.97577416741456
H         0.27910945493561      -1.50088702808487      -0.90983018944188
H         1.33350975526193      -2.74623520798759      -0.17687877535794
H         4.65691163142914      -1.59694568715284      -0.02919471964898
H         4.80783521454783       0.17602824987379      -0.17196225954720
H         3.73480013381620       0.50930514294557       1.99046277020687
H         4.52856933164388      -1.06063599949101       2.28366384150312
H         0.69677788581394       1.04852690551986      -1.34129166776140
H        -0.74026303495136       0.46020816896695      -0.48494057619819
H         0.13684811298613      -2.51614751546444       2.00391809484940
H        -0.98529928920421      -1.32266708542319       1.27983020310384
H         0.66133220006746       3.14832284756522       0.01870393044799
H        -0.75925272060220       2.56653735603652       0.89970520749319
H        -1.68557616774911      -3.06876472354632      -0.39522875193951
H        -0.53290552183365      -4.20740650873355       0.34140553860533
H        -2.08181714840656       2.51592289206620      -1.25216041670605
H        -0.65226024013274       3.09620948866953      -2.14077871453798
H        -1.43387817546918       4.14139793994368      -0.93202295545502
H        -2.92494835332038      -2.94183556507469       1.82755858915050
H        -1.75681466613259      -4.11581735520770       2.50503245251484
H        -2.86028173415172      -4.60656164343789       1.19905972423794
N         2.47021058998613      -4.48806941941726       1.21252054597310
S         2.14976781309000      -5.30475895139750       2.56992646363854
S         3.83745518014581      -4.45685053344454       0.36729756195057
C         3.28239130068604      -4.62698112438525       3.93433487947547
C         4.27511024167350      -6.22331342840706      -0.17011837508415
O         0.82746774724247      -4.84852185057671       2.98944330906085
O         2.47033682547748      -6.72198032575884       2.51954834722304
O         5.00391315676667      -3.99130913290315       1.11566019278503
O         3.49943647500510      -3.77476597150570      -0.88796992906719
F         2.80031618408680      -5.02388025922432       5.13514462688335
F         3.29488007079990      -3.26083710409917       3.91738441431799
F         4.54691370308887      -5.06892352836474       3.81163005173327
F         5.17626946455289      -6.14785345907309      -1.18039625115435
F         3.17727167943893      -6.86872338809025      -0.61607889535532
F         4.82477010654876      -6.91395550614555       0.84418280519284
