51
C13H24F6N2O4S2 optimized with DFTB in AMS.
N         0.19241356799077       0.54550964950919      -0.12296876302273
C         0.51801894404511       0.39514041418640      -1.58280015564395
C        -1.20059043365692       0.00457818165346      -0.02194639764654
C         1.11666669034868      -0.27859382859409       0.72394818145111
C        -0.79231002767042       0.61755314260656      -2.33350505767498
C        -1.90610622301698       0.47936441673959      -1.28666794063370
C         0.23245374983288       2.00616698915565       0.23757252907843
C         2.58131812522411       0.13866639731514       0.62766631776107
C        -0.04639153024762       2.31529867239981       1.70555671267811
C         3.44771753276736      -0.79926253085994       1.47499814015867
C        -0.05712934205186       3.83179619575651       1.90198361659993
C         4.92085489697888      -0.41036277805306       1.36713490690606
H         1.28336997292649       1.11940291750447      -1.85225058066032
H         0.89859351471794      -0.61647735281755      -1.73766947105304
H        -1.13008705859582      -1.08571588421362      -0.00302921639678
H        -1.66969362617983       0.34768975950549       0.89918020860151
H         1.00502265234145      -1.31421677570334       0.38955368028519
H         0.75893618200220      -0.21331535044811       1.75448224278696
H        -0.80894004551017       1.60874723948198      -2.78869909217818
H        -0.89683525433849      -0.12444882664674      -3.12687800648760
H        -2.66402642668656      -0.24478713972864      -1.58951302152877
H        -2.40072390090897       1.43778783246921      -1.11653110588644
H         1.22070402880135       2.37622229686490      -0.03778634586844
H        -0.49884234057321       2.50563972394528      -0.40001101353035
H         2.91222055536572       0.09555481589013      -0.41179749310369
H         2.71237504978530       1.16434072863068       0.97724042493320
H        -1.01135958839935       1.90507667732843       2.01793546008721
H         0.72886255833038       1.88108777741155       2.34251570135273
H         3.12797375727431      -0.74863193013482       2.52159267624599
H         3.31375741724269      -1.83116335702801       1.13242531658101
H         0.91184415698886       4.25466498038652       1.63927132308063
H        -0.81992672823793       4.29417908492975       1.27575871934351
H        -0.26872088961995       4.06538525397325       2.94494831503476
H         5.52841906318138      -1.08384997003419       1.97122813802350
H         5.25500219585062      -0.47129443254652       0.33125833034275
H         5.07192894751458       0.60973796751605       1.72070391053609
N         2.98189376474943       4.14220939049970      -3.09997136807447
S         1.44382800673250       4.44180222756498      -2.77515549993621
S         3.66277083101685       2.86939303271034      -2.42016114845093
C         1.44367246102568       5.51070193817267      -1.23659777177090
C         3.35813322321987       1.43588721408517      -3.59740208135945
O         0.92797248147928       5.29799882699818      -3.80407043136532
O         0.63234149169064       3.29841087727878      -2.37483109946630
O         3.05535368656168       2.39842185806333      -1.18221445189946
O         5.08616600813791       3.04600400170020      -2.44185191613154
F         0.19363021250537       5.62027057839121      -0.79348179721993
F         1.91633131428982       6.71610452210023      -1.48845060170723
F         2.17071936949748       4.95757118938654      -0.27333423362032
F         3.40842919645032       0.29325279012505      -2.90578979621609
F         4.26488035131551       1.39242895558164      -4.55249532683287
F         2.15357701421070       1.51584739489063      -4.14900532900188
