42
C12H23BF4N2 optimized with DFTB in AMS.
N         0.18573454348969       1.41476890879558      -0.67006657591163
N        -1.87735735866132       0.84653149967545      -0.43188732137613
C         1.51475182846977       1.53801176643453      -1.26608450213092
C         2.56945630661126       0.81919346467128      -0.42299260081641
C        -3.17792975737464       0.25039502391612      -0.73571847481236
C         2.28168826390248      -0.68005372439444      -0.31033915059829
C        -3.60814538651009      -0.74500016258056       0.34201212141176
C        -0.85735960201081       0.86599199281865      -1.28385768696161
C        -0.17276162152656       1.74843634999587       0.61019354623816
C        -1.47508664957226       1.39087093723601       0.76009843292843
C         3.38513883905586      -1.40447371549981       0.46450039767171
C        -2.62766541764904      -1.91416358444130       0.47570322829603
C         3.07775370727402      -2.89677576904009       0.57798092946100
C        -3.10246035396790      -2.91395992260097       1.52682420066633
H         1.75277818838780       2.60268040519163      -1.35588794491466
H         1.45485442440892       1.08948955197844      -2.26162521359685
H         3.53591217162658       0.97790373039041      -0.91150887180676
H         2.61996935824083       1.27253325837455       0.57261922977983
H        -3.91170535754731       1.05832025082080      -0.82385961399928
H        -3.07223864125704      -0.25284571683818      -1.70139750618187
H         2.19326787245041      -1.10648106645350      -1.31330764141701
H         1.32303966151464      -0.82843145386937       0.19465591022213
H        -4.59524734383259      -1.12103590916890       0.05544099330479
H        -3.71554111347223      -0.22946671405154       1.30225144164135
H        -0.87963921248861       0.51682937749703      -2.30207616401186
H         0.51191814305397       2.20940798975490       1.30003405172756
H        -2.13398971921034       1.48394824452121       1.60512606942144
H         3.47584982696136      -0.97137538355381       1.46755280856618
H         4.34434780820904      -1.26643377321829      -0.04675282787974
H        -2.52750726784719      -2.41356065855876      -0.49135422053945
H        -1.64102448426458      -1.53230022411994       0.75199678110503
H         2.99638348485101      -3.34366453149259      -0.41316687873248
H         2.13572832539048      -3.05203319201903       1.10540688270108
H         3.87246899839666      -3.40369893538141       1.12616749265429
H        -3.18690061515280      -2.43566432065686       2.50443031595291
H        -2.38919576388533      -3.73447969751317       1.60243512576282
H        -4.07626801588225      -3.32465915659737       1.25578428613126
B        -0.38016477406159      -1.67472535877153      -2.65170553387137
F        -0.33786208053332      -1.60157323470058      -1.22951967620820
F        -0.12129220825337      -2.93488302647371      -3.09543915795256
F         0.56851569722686      -0.73419231920247      -3.12786289971894
F        -1.66722376126042      -1.22348443847423      -3.03440538080575
