42
C10H18F6N2O4S2 optimized with ForceField in AMS.
N         0.00157354388956      -0.00954883056284       0.01316818256033
C         0.92732036085112      -0.84563101936949      -0.81221416106735
C         0.89686218169244       0.84275295558741       0.85457642974351
C         2.33584318929626      -0.31136956505151      -0.63502255022736
C         2.31043504175824       0.30888072453304       0.73292657356603
C        -0.83343829843324      -0.88269288253548       0.90085962462785
C        -0.83404793106414       0.84866914937159      -0.88820188623768
C        -1.82710875033227      -1.79021157466282       0.15235576188607
C        -1.84993911709711       1.74400202159419      -0.15532361201265
H         0.66300330162647      -0.85883023974088      -1.89438728562711
H         0.94269585035808      -1.90977647277010      -0.48184117503114
H         0.59609702003807       0.87491659112794       1.92666499147092
H         0.92180135970727       1.90054306684270       0.50430824806458
H         2.54080228966787       0.46919375943091      -1.40083865003560
H         3.10013967649813      -1.11583638007715      -0.70355904480249
H         2.48744780974714      -0.47191715817418       1.50557260084883
H         3.06983681659335       1.11445010187247       0.83206201604055
H        -0.17432966776159      -1.53444422062491       1.51968753015629
H        -1.41005620152251      -0.27027203881279       1.62876633103999
H        -0.17645372506978       1.50833328782477      -1.50027428297698
H        -1.39153002558930       0.22561511591384      -1.62193898971953
H        -2.27153215421889      -2.51320102503529       0.86838924334587
H        -2.65919528384193      -1.19925542542411      -0.28149650632446
H        -1.33060293361200      -2.36596113106550      -0.65461030787931
H        -2.30042200089102       2.45398167931644      -0.88053106530659
H        -2.67540716125349       1.14200084080926       0.27580638788717
H        -1.36984907650332       2.33429060998495       0.65114625768879
N         7.57893022642694       0.24378875491574      -0.66707324080753
S         8.84765313877909       0.15059674657983      -1.69973587409907
S         7.23208156800554       1.59741843945365       0.18874327773142
C        10.26755930459464      -0.48905647065678      -0.83509092634706
C         6.05834794221762       2.58392759480622      -0.71751346050055
O         8.50118386807648      -0.78702023289336      -2.82147989219076
O         9.17362144467796       1.50745742213721      -2.25987097667656
O         8.47834690445996       2.40291853603852       0.43225833128260
O         6.62183201083937       1.20413243249993       1.50416550238138
F        11.33126925239562      -0.59295283241992      -1.71065094725080
F         9.97285445124206      -1.73821362072010      -0.32292952755237
F        10.60909865464802       0.36025338667902       0.19992880443595
F         5.67213025232696       3.66398845885721       0.05266154747712
F         4.94935786303908       1.81921286072616      -1.02199589347088
F         6.63317392353722       3.03948806499420      -1.88842000069141
