59
C17H34F3NO3S optimized with ADF in AMS.
N         0.92864717388285       1.34834293574333       0.64939310725068
C         0.59043359217418       2.63969482676820      -0.11326793137708
C         1.76431317189576       1.81858973587090       1.83996682517376
C        -0.33203303062745       0.69163228051141       1.17414154356541
C         1.73482645137008       0.42630868736836      -0.24330547994971
C         0.91162758106731       3.80880325849730       0.82765768233242
C         1.20120901190359       3.17911974573375       2.19773631043279
C        -1.24073383605694       0.07251707481592       0.12362444743301
C         2.22265868925811      -0.83634442162050       0.44065850392873
C        -2.56959645578955      -0.36733914503449       0.74732742448422
C         3.28633033143380      -1.51134351410268      -0.42902126722209
C        -3.50542743188160      -1.03002222006647      -0.26396432757791
C         3.82963002907338      -2.79137927685336       0.19878094171170
C        -4.84162949730433      -1.46198415197884       0.33991165874330
C         4.96257880495146      -3.41436470752360      -0.61406203228079
C        -5.77011722923614      -2.11302205187483      -0.68415034871057
C         5.50376167120960      -4.69601307676366       0.01461540701607
H         1.23549948701540       2.66625071532761      -1.00142838060617
H        -0.46448269569112       2.57974020525515      -0.40771950719737
H         1.70153643422083       1.06473444284127       2.63481611293488
H         2.80386262488925       1.89932514925044       1.48690395298138
H        -0.00737087632552      -0.07660357312914       1.89206610140644
H        -0.86626691163820       1.47378713071868       1.73494536910893
H         1.10647482308756       0.20225324202715      -1.11866771185354
H         2.59060569317560       1.03174511808481      -0.57842131091948
H         1.82324526041489       4.30875788003055       0.46846775620197
H         0.09053739776672       4.53915906590306       0.86315325844695
H         0.29511362577342       3.09422855457127       2.82032564550721
H         1.95268882931741       3.75897286033191       2.75391156634612
H        -1.44619312714654       0.78777916593342      -0.69029348616525
H        -0.74987525911401      -0.80279458579594      -0.33359628520849
H         2.69134426612187      -0.58274924653182       1.40550391100776
H         1.39304029058102      -1.53810827608505       0.64181938059896
H        -2.37491730200388      -1.06857059373754       1.57994095772866
H        -3.07541548365848       0.51088285186183       1.19054008524206
H         4.10985151476810      -0.79039991144114      -0.57528612215121
H         2.86918845653910      -1.73506153520205      -1.42859680117828
H        -3.69427893925496      -0.32989301689133      -1.09930085567255
H        -3.00320163899260      -1.91179157361217      -0.70428832406740
H         4.19952085031228      -2.56451190071363       1.21669971536287
H         3.01297761379966      -3.52896851362789       0.31845666556607
H        -5.34067062308060      -0.58147302914000       0.78433011089215
H        -4.65442829473383      -2.16595402906034       1.17100720301581
H         4.60301905381099      -3.62294366393595      -1.63820691999740
H         5.77599914966971      -2.67381827584539      -0.71443333228734
H        -5.99687769068012      -1.41905464376889      -1.50920058713443
H        -6.72505563572004      -2.41418481040507      -0.22658263226601
H        -5.30830870967807      -3.01306442011833      -1.12103585328304
H         4.71207715548378      -5.45797817613692       0.10109479937624
H         6.32176950101265      -5.12508881800664      -0.58435462345918
H         5.89400623482057      -4.50145755817121       1.02665238220979
S         4.48292782426654       3.03907874047912      -0.17414386142193
O         4.78176988683012       1.67476214639712       0.31799626857486
O         4.23378602275349       4.03862392080111       0.87988718901052
O         3.51874787998631       3.06711626173072      -1.29901839567386
C         6.09674335302647       3.59773275869889      -0.95211956696989
F         6.47005495376762       2.75895041615209      -1.95575112523499
F         7.09374056158985       3.61817769799776      -0.03014061870396
F         5.97908305149264       4.84747133277170      -1.47242474122183
