37
C9H13F6N3O4S2 optimized with ForceField in AMS.
N         1.11287190438006       0.37352296503050      -0.38504423232427
N        -1.11019664449052       0.38502008794025      -0.40451490281097
C         0.00237818853936      -0.21789814833016      -0.86698844893909
C         2.49631925499018      -0.01699792409727      -0.64288487504793
C        -2.49261845709901       0.00097894705721      -0.67666215082584
C         0.68951332457972       1.38669195912109       0.39768537207446
C        -0.69031647938292       1.39335647871025       0.38619286997856
C         3.10168954985326      -0.67670338851747       0.59175033641811
C        -3.10431573269211      -0.67358869137026       0.54568805387208
H         0.00356801339290      -1.08225796415794      -1.51973880920134
H         2.53670880065735      -0.73449761522212      -1.49138335713281
H         3.08989337420569       0.88004498802707      -0.92201888887395
H        -3.08372204318713       0.90201981294140      -0.94768080418743
H        -2.52851082656132      -0.70612554763133      -1.53403798465952
H         1.33433870296613       2.06612830681436       0.93985338009374
H        -1.33758859901344       2.07806082429150       0.91874107985641
H         3.10016259899310       0.02972639120600       1.44869064685906
H         4.14876388845746      -0.97810399459033       0.37845895269817
H         2.51717738475495      -1.58124317600485       0.86483254717626
H        -2.51413338196759      -1.57638020315685       0.81197016112015
H        -4.14816046762242      -0.97988260916528       0.32333651631304
H        -3.11215426737601       0.02327712481000       1.41051799398854
N        -6.79643745146788      -2.23381926240585       1.49488132856668
S        -6.51947039154364      -2.12694640782032       3.10693452281657
S        -7.75671757621102      -3.38658203170320       0.83408462366190
C        -5.06628279555728      -3.06967158636357       3.52268472319302
C        -9.39171601047506      -2.72419057221886       0.59165783272396
O        -6.28628248657210      -0.68856576225056       3.47206737420789
O        -7.69405054232198      -2.65686907573362       3.88155819875309
O        -7.83581454848664      -4.59193807184352       1.72926361165491
O        -7.19545098353834      -3.78889902942000      -0.49997484026368
F        -4.83883875916336      -2.99207657286015       4.88323280436378
F        -3.97459747775695      -2.55953864975452       2.84923402074195
F        -5.24723181013350      -4.39118875266650       3.16325895921928
F       -10.20791460824931      -3.69777205724584       0.04785494875805
F        -9.33066301637889      -1.64460794232593      -0.26883625276725
F        -9.91291458932174      -2.31470789679330       1.80400857522442
