39
C9H16F6N2O4S2 optimized with ForceField in AMS.
N         0.15846671034243       0.29653491935892      -0.08331097533835
C        -0.43773586208834      -1.01261726118972      -0.46687780008537
C        -0.94564052327211       1.06568544348030       0.56685818827866
C        -1.94449424440154      -0.86120066080843      -0.42797778114137
C        -2.16644941999295       0.16317689302025       0.65175623977379
C         1.28349776169005       0.12647705017509       0.88697710734607
C         0.61932523813031       1.02493669627034      -1.29398096700743
C         2.46081816985857      -0.71397600965176       0.36460221644994
H        -0.17342137863927      -1.81362536648098       0.26129016055672
H        -0.10989396820767      -1.36395085534673      -1.47233973326303
H        -1.23067649253869       1.97516043657177      -0.01265381346637
H        -0.68664066619789       1.43025642116579       1.58784357219475
H        -2.45233243210104      -1.82187048661808      -0.19243300728697
H        -2.31155148352969      -0.46989634387545      -1.40244828923510
H        -3.11290648056643       0.72427186937227       0.49435339433320
H        -2.19209759856446      -0.34070991684034       1.64393506987963
H         1.68293689237153       1.12202362979522       1.18762666105997
H         0.91032208766003      -0.35970504780123       1.81783325176431
H         1.36649407568067       0.43691928397030      -1.86808353741552
H        -0.22957859020908       1.22185334861582      -1.98706746772118
H         1.07610254963337       2.00196558652402      -1.01889489934720
H         3.18200183740769      -0.88351955803459       1.19183422317861
H         2.12296603940304      -1.70469874957123       0.00373527971837
H         3.00296026262534      -0.18733727419672      -0.44624517893099
N         4.11792146896846      -4.75650647912607      -3.03424597884051
S         3.94689599159035      -3.49749910115277      -1.99941960616164
S         4.37460921771583      -6.29177341395156      -2.52068142784110
C         5.53414519321110      -2.73213423393563      -1.74006008783672
C         2.82526403798067      -7.16897355925214      -2.49969537499270
O         3.01164122752218      -2.48738213003801      -2.60102587905689
O         3.39788801487323      -3.97010753797500      -0.68186340945741
O         4.97188657390627      -6.29875326484001      -1.14073624826081
O         5.30851020400161      -6.98097191133683      -3.47415219452579
F         5.39418188578018      -1.65041825128585      -0.89203836420060
F         6.04253662375711      -2.30149646435249      -2.95074933645212
F         6.40569530440526      -3.64439305096944      -1.17677341585901
F         3.03199039930559      -8.46027404482023      -2.05316406023866
F         2.29706476928727      -7.20486192324048      -3.77620455799335
F         1.93842622230101      -6.52876721212833      -1.65520690757781
