36
C8H18F2N2O4S2 optimized with ForceField in AMS.
N         0.42758380133330       0.22628653039754       0.04111986513214
C        -0.51954670885517       1.26910944449086      -0.46452924438918
C        -0.09114045558954      -1.13954567629862      -0.27641432862483
C        -1.97701762113702       1.07943863823133      -0.00580621240977
C        -1.53440641007953      -1.37741134291944       0.20260919658254
C         1.72839459835817       0.45360943215822      -0.67095060108995
C        -2.47812570429067      -0.31728420684071      -0.35449102291548
C         0.63077172632498       0.39096358306174       1.50643107319241
C         2.88116311668038      -0.48824029208790      -0.27592505422932
H        -0.53180715095439       1.26538370428114      -1.57894072075129
H        -0.18583850673071       2.28488593110649      -0.15176602932235
H         0.54029151145224      -1.92325411501846       0.19503567678816
H        -0.06295498194135      -1.31590556230070      -1.37643286536168
H        -2.61551729513670       1.82807067687616      -0.52308222871113
H        -2.08429197528923       1.26723530706446       1.08232583836912
H        -1.58128968101207      -1.38554994315458       1.31218478576038
H        -1.87074862581176      -2.37717326544959      -0.14775483275328
H         1.58822108935002       0.35250903668159      -1.77196795903609
H         2.08261724990983       1.49655426337553      -0.49940146563623
H        -3.49382717237165      -0.46355681746740       0.07305929411811
H        -2.55004390197692      -0.42341007557387      -1.45971219232560
H        -0.32290485375864       0.38941071770058       2.06827913754101
H         1.23205813914286      -0.44107214588308       1.93037323782257
H         1.14677762873956       1.35032060170236       1.73364676310252
H         3.77297743849581      -0.23458191176971      -0.88712584596235
H         3.16846376307507      -0.35995755799773       0.78695704446720
H         2.63573240488093      -1.54881250886149      -0.48199086099297
N        -0.15763432281584       2.53037498558147      -4.94703511790354
S        -1.16856387590952       3.37305949662289      -3.97477541615461
S        -0.45596925824217       2.36945109261906      -6.54772772337307
F        -2.50200273812781       2.42597945949567      -3.61671024802733
F        -0.15983495045757       3.82863677833465      -7.31326823394620
O        -0.45755780933409       3.73432075919555      -2.70219731462244
O        -1.62911354721285       4.62460141574882      -4.66816559121614
O        -1.89308690217551       1.98723402890741      -6.76654051630850
O         0.44252173566756       1.31259519948975      -7.12403951081285
