36
C10H19BF4N2 optimized with DFTB in AMS.
N         1.28180596326938      -1.01558233534577       0.20210202537710
N        -0.75789597994294      -0.38331626632133      -0.05828011424817
C         2.74053475898481      -1.04369363107817       0.10787960405754
C         3.36030888643293       0.15361668799488       0.82443096289525
C        -1.92007031096542       0.39679165479184      -0.46619913362127
C         0.51202629567352      -0.03317315020185      -0.25765711097088
C         3.00485931800049       0.18747537012867       2.31341236930580
C         0.49053130373590      -2.02215742084959       0.68306639946112
C        -0.79871526659486      -1.62719097839531       0.51891506781443
C        -2.65636154305417      -0.27746828247372      -1.62834918903122
C         3.64374644161485       1.38992323347238       3.00628411396958
C        -1.80975067638793      -0.33757849938465      -2.89559686194231
H         3.07884451310067      -1.98591456453770       0.54648333853070
H         3.00232031369252      -1.02004033306148      -0.95541468945389
H         3.03146502029488       1.07371095472865       0.33443276023414
H         4.44470170037474       0.08148606176104       0.70442166183653
H        -1.56432666840406       1.38848714432160      -0.75739502643509
H        -2.58318029483140       0.49472913043820       0.39892380716313
H         0.85921522897250       0.88926296248699      -0.69437521163486
H         1.91609697575816       0.23840216051707       2.42847730785268
H         3.34731342952338      -0.73622141747540       2.79344055560312
H         0.90193412104190      -2.92681413693144       1.09548773378177
H        -1.72397621792483      -2.11689397664408       0.76651122676724
H        -2.95398921932930      -1.28683305370642      -1.32755440014235
H        -3.56711138788707       0.30021045378988      -1.81342392805333
H         3.29773374810858       2.31885058818749       2.55170054812107
H         4.73002163708186       1.34587785121473       2.92192447312794
H         3.37672064285923       1.39849604309527       4.06331685226765
H        -0.91488894902535      -0.93690471354806      -2.73382616856182
H        -1.50081881889352       0.66277877512207      -3.19853561143934
H        -2.38932120309116      -0.78500278679044      -3.70237731919009
B         2.28896657297561       0.42513981847705      -2.86133251502466
F         2.08597239573405       1.02681946821599      -4.06988314181428
F         2.35964011228597       1.39253185102465      -1.81628409347543
F         3.43750212632912      -0.35955872120941      -2.81616991279837
F         1.17077773088697      -0.41768873651365      -2.53354255142942
