34
C10H21NO2 optimized with ADF in AMS.
N         0.35478122766477      -0.16034855439784      -0.09091633435738
C         1.65751376296645      -0.92883389745239      -0.29155701296891
C         0.83485768677981       1.20538851745510       0.33485811210378
C         2.63687401225492      -0.36100070414719       0.74381297533041
C         1.99426602501541       0.93888038364937       1.28364594069734
C        -0.44560633934839      -0.79700711059142       1.03271040560071
C        -0.43283580036004      -0.09615029434412      -1.38448129680353
C        -1.12787017801877      -2.09229509541652       0.63486321435903
C        -1.69801601868342       0.72633051943540      -1.27829309392217
H         1.94323050768844      -0.78935216595640      -1.35443418095474
H         1.43561639555004      -1.99808924139077      -0.20643837531611
H         0.00429971413628       1.77535796234827       0.76926393489899
H         1.17907571782995       1.70131087956155      -0.58504278534239
H         3.60136686689552      -0.15642454092735       0.25603365139130
H         2.83174459686611      -1.07009610157586       1.56169942839794
H         1.63111611630115       0.80752152038177       2.31414712522010
H         2.69049998484491       1.78976715756121       1.29154581519823
H         0.27394293112714      -0.96742093581805       1.84596910302983
H        -1.17035950534897      -0.04280300990912       1.37704557503065
H         0.26854695161780       0.30370791334780      -2.13150370154239
H        -0.57996252622528      -1.15184487928062      -1.68512354071777
H        -1.41908110563552      -2.63110751222331       1.54849882116411
H        -2.03491072805798      -1.90907844505274       0.04305671497860
H        -0.47487087067835      -2.73512106558688       0.02389904773326
H        -2.19036845483682       0.70958768381169      -2.26280646906525
H        -2.41615479863406       0.31816892127951      -0.55236959765752
H        -1.50640383995926       1.78156640296610      -1.02915664002521
C         1.22406840445017      -3.53005777772579      -4.25572309019339
C         1.05396383244417      -2.52889262389295      -3.10270236577430
O         0.27937138493452      -2.87749560716116      -2.15026007401153
O         1.68625881812612      -1.43369999005767      -3.21150084537673
H         2.28921450367740      -3.64309072033472      -4.50754767239130
H         0.78599654821245      -4.50639429628427      -4.00676518901294
H         0.72267795130334      -3.13140614257063      -5.15234383720073
