31
C11H14F3NO2 optimized with DFTB in AMS.
N         1.66508795304554      -0.24431168491260       0.28779309917161
C        -0.77290654923484      -0.00884974164189       0.05518017149388
C         0.40044998322672      -0.25569757528824       1.01241844465214
C        -2.10628911395633      -0.01774504198436       0.80775953282000
C        -3.28060998343231       0.22716070164614      -0.13819865137110
C         2.26858571370955       0.95752602758324      -0.01254748963661
C         2.08306712544784      -1.37721477980897      -0.37413844365523
C         3.34722091152364       1.03786589952895      -0.80078814986523
C         3.15598868558890      -1.38310305215019      -1.17539795319532
C         4.02357962581302      -0.18164985244064      -1.33177729144260
H        -0.77563118548362      -0.78566213977745      -0.71600303017315
H        -0.63283357436735       0.95613628989600      -0.44209788051739
H         0.29240670655707      -1.22685610116788       1.50471319851286
H         0.43503527977913       0.52205798837381       1.78124258027177
H        -2.23562257911641      -0.98417821931692       1.30686956654638
H        -2.09266133850069       0.75840781682789       1.58053179825399
H        -4.21709556628268       0.21650392344474       0.41952234076475
H        -3.17935670964960       1.19545155469498      -0.63007446926832
H        -3.32255174201044      -0.54857284913244      -0.90387920528226
H         1.79890052050965       1.83679911798606       0.41435074070119
H         1.47377441839122      -2.26120434027787      -0.22173093050623
H         3.79638943498003       1.99674484153286      -1.02248748224355
H         3.45417374705359      -2.29047415655501      -1.68374070061971
H         4.38637308407762      -0.04343314925681      -2.35856072817007
C         6.36047092931215       0.18112105394456      -0.88167597261952
O         6.51952053456198       0.92382661016887      -1.80572801506135
O         5.27104063901551      -0.43019352690234      -0.51921256465897
C         7.52917125429247      -0.19534979137540       0.09902694425855
F         7.74173224513879      -1.51335677466386       0.09964900370074
F         7.23028446982412       0.17277731818545       1.34828144387204
F         8.66114357438567       0.40657662403933      -0.24956492313331
