44
C12H26BF4N optimized with DFTB in AMS.
N        -1.47462500376138      -0.15233214943622      -0.00638413223884
C        -1.60472973809948       1.34173275275329      -0.06852193605370
C        -2.46302930343982      -0.70368587129067       0.98391733849008
C        -0.10493944978213      -0.54745608183445       0.49273061145264
C        -3.02831040081759       1.80266386700067      -0.35705589432255
C        -3.89704605040846      -0.29165946566842       0.68409119684247
C        -4.01289380067773       1.23068823278895       0.65985692833767
C        -1.68507744080838      -0.75349307430340      -1.34775860868748
C         1.05871910080662       0.19416837991775      -0.15552449281562
C         2.37234232563273      -0.41742314220222       0.34661381398103
C         3.57910578859335       0.31936610113762      -0.24089502529942
C         4.89372906716839      -0.27760356028279       0.27095792210837
C         6.10162007944254       0.45494419338021      -0.31062828046845
H        -0.93216672685744       1.69810387060294      -0.85079246918706
H        -1.27395145992909       1.72423498912733       0.89944438262225
H        -2.16962411327973      -0.31982597657535       1.96455497348566
H        -2.35489755455650      -1.79102146579958       0.97618400498079
H        -0.08851229159723      -0.35170655916211       1.56634584867190
H        -0.01696859267825      -1.62567409573503       0.33067192870113
H        -3.02806040491704       2.89397717457861      -0.29537764668486
H        -3.32872026412634       1.52826478244071      -1.37391315429962
H        -4.24291881644851      -0.72055256755764      -0.26202128431719
H        -4.52351975470532      -0.69809095545724       1.48225497178001
H        -3.77893805564653       1.62644409711409       1.65164950217480
H        -5.03169102286546       1.52438201932692       0.39637875566907
H        -0.91904875190480      -0.38369723371952      -2.02624268892629
H        -1.61276915295268      -1.83664842494673      -1.26488185043371
H        -2.66610587404514      -0.48228791636676      -1.72867616120986
H         1.01721659033102       0.13650001035056      -1.24798375418482
H         1.03143861133233       1.24489000453569       0.14222534886631
H         2.39987306646170      -0.35190420100823       1.43843566414774
H         2.41595751438949      -1.47668556840380       0.06972417936906
H         3.52684679760614       1.37765238486549       0.03507128656983
H         3.54919984623056       0.25719485747514      -1.33468286582280
H         4.94381224897672      -1.33726256320351      -0.00241482780841
H         4.92031252962083      -0.21260365920003       1.36355987063818
H         6.10402408170533       0.38549516454647      -1.39950301381403
H         6.08018473857554       1.50893239796639      -0.03055178681659
H         7.02412560962580       0.01390798725567       0.06749001384355
B        -0.70650206249541       1.32843111999780       3.34456625591180
F        -1.98886841841789       1.71160518011156       2.86657796778023
F         0.23039098988404       1.67240903714568       2.33286834041259
F        -0.71460531184221      -0.08716011188024       3.43457258496989
F        -0.40986392612261       1.91802138501439       4.53384079498427
