55
C15H25F6N3O4S2 optimized with ForceField in AMS.
N         1.36580308815685       2.27882238877202       0.04386085644081
N        -0.83900640313611       2.43580906387753      -0.21301463605187
C         2.74619278216879       1.86675793483379      -0.20574113530940
C        -2.17365611035153       2.23805762115316      -0.77839880814746
C         3.01615439827103       0.46508886879396       0.36323298301427
C        -2.41509755708255       0.75881814695652      -1.11795716308499
C         2.08156614753834      -0.59088940526026      -0.24649503673512
C        -2.35130603270694      -0.13416712781763       0.13007503584825
C         0.33708924841648       2.18700495268059      -0.82168995631867
C         0.82407588178454       2.60468067758732       1.23477193051136
C        -0.54254950967311       2.71025279951218       1.07368657730719
C         2.42708791929074      -1.99938902299700       0.24527415815737
C        -2.55316324024482      -1.60891816253560      -0.23276769262360
C         1.44113071706530      -3.02422274293138      -0.30905715019878
C        -2.47565992730643      -2.49491020801639       1.00821040484215
H         3.43944510639176       2.59720501114655       0.26437777497568
H         2.94971292978099       1.86772259156066      -1.29925718729125
H        -2.27329579809955       2.84860110014368      -1.70144343702362
H        -2.94921771963041       2.58380168377157      -0.05984089878590
H         2.88907420043257       0.48344331078442       1.46773027266271
H         4.07215501951151       0.19433594001436       0.14437768521801
H        -3.41850346632222       0.66121410181094      -1.58672858113421
H        -1.66014541210813       0.42165899341028      -1.86142044710438
H         2.15783884517820      -0.55845494366509      -1.35567673709380
H         1.03350080767499      -0.36340217192482       0.04245138465557
H        -3.13772453522164       0.18287962447972       0.84960899659783
H        -1.36093277090131      -0.02134849889429       0.62069208695448
H         0.43385947376436       1.85792768003562      -1.84910371388651
H         1.37311857650839       2.69258552171274       2.16331921086589
H        -1.27029211155215       2.89587200373581       1.85299239886913
H         2.39003924427700      -2.02956881330854       1.35616274484004
H         3.45428902428508      -2.27047499028152      -0.08184992228369
H        -3.54606377746552      -1.74611047037292      -0.71328098808307
H        -1.76798077057300      -1.92713215368815      -0.95282866335843
H         1.47240420120126      -3.03195111084158      -1.41937196741573
H         0.41066603593994      -2.78493155953095       0.02413862140887
H         1.70307986477877      -4.03508744167403       0.06282239560349
H        -3.29847413160798      -2.24498373570032       1.71106663788902
H        -1.50252369803776      -2.35620661762868       1.52570940635730
H        -2.57076399099495      -3.56077151717263       0.71198371809924
N         0.66020681066233      -8.19490372585425       2.07834082022019
S         2.28031011439256      -8.28931735806288       2.30519190886858
S        -0.05235922226560      -8.48376426390647       0.63112071639378
C         3.00426297606970      -6.68469406921310       2.03619730382021
C        -0.66035483822463     -10.15719042428777       0.60449228864827
O         2.55456348647474      -8.71572617337226       3.71938650716352
O         2.89273015736104      -9.27931949588847       1.35352219774440
O         0.92452892465406      -8.28826095873548      -0.49504185563945
O        -1.21218657570901      -7.54445457820500       0.45870868044025
F         4.36090212482065      -6.74159885505920       2.29180950753091
F         2.41586279578149      -5.76386274073873       2.88275312189604
F         2.80263966722801      -6.29742472251029       0.72568819725943
F        -1.25320345954441     -10.41257908173463      -0.61721713680799
F        -1.59243982342799     -10.32617018369049       1.61097196269901
F         0.38741621572629     -11.03748054337264       0.79861002207466
