52
C14H23F6N3O4S2 optimized with ForceField in AMS.
N         0.20565827976013       2.32000846742123      -0.21974530490697
N        -1.86437297907429       1.50513071625145      -0.19900887183884
C         1.59367221572515       2.53165026830235      -0.62998386648685
C         2.53377727286708       1.53214121230773       0.06178194462713
C        -3.04805854665807       0.74236253038326      -0.59371269211846
C         2.12321402661681       0.07953595396363      -0.21891477003067
C        -3.07306651987302      -0.63223707164710       0.09081280765789
C        -0.75666417679493       1.70857018018424      -0.93856204223155
C        -0.31473182104135       2.52020897214544       1.00809322297148
C        -1.59914129805721       2.01572248085039       1.02056853836619
C         3.11780900169112      -0.91965427871468       0.37578725651175
C        -1.88320089126789      -1.50422916591307      -0.33513675222134
C         2.63875543026356      -2.35269622911035       0.15824629415196
C        -1.93491937513274      -2.88160147839015       0.31581431419868
H         1.89896990250441       3.56909537364927      -0.37455371854347
H         1.68569086013922       2.41605288253042      -1.73249000182908
H         3.56717331467268       1.70413619860407      -0.30994680791179
H         2.52573066264895       1.71654101041392       1.15832763074944
H        -3.95991369802587       1.31276031795723      -0.31437104945434
H        -3.06396157692837       0.60530306174382      -1.69747253551467
H         2.04832718996670      -0.08270303299478      -1.31684470849078
H         1.13074435887042      -0.10453678954978       0.23884719372860
H        -4.01958448267787      -1.14586571610335      -0.18483191523814
H        -3.06435113175816      -0.49613370425953       1.19442099415205
H        -0.62505116522765       1.34743042855483      -1.95124019544511
H         0.21653469744146       2.95224941312268       1.84619449044020
H        -2.27023002699820       1.98147082777165       1.86895740813879
H         3.22454789470392      -0.73959980654527       1.46768304871362
H         4.11151350140486      -0.79190604812726      -0.10533356808964
H        -1.87840325158780      -1.62537769777514      -1.44009764565498
H        -0.93661853129660      -1.01680626530113      -0.03150843364079
H         2.54829947848173      -2.56996469976190      -0.92767621075781
H         1.65093206230781      -2.50939375969431       0.64326092325512
H         3.36841660962510      -3.06000535320947       0.60450592214191
H        -1.94507504422338      -2.78650471168944       1.42249442729419
H        -1.03459250950536      -3.46050872854777       0.02048175385099
H        -2.83989901366431      -3.43203162791999      -0.01732524996951
N         0.47460364916865      -5.86236971023975      -2.68806034535712
S         0.31109137453401      -6.75822008185262      -1.32415729298145
S         0.94330673579130      -6.50853162287792      -4.12092994397341
C         1.84629198513111      -6.73869694646878      -0.42139625511365
C        -0.49965363895212      -6.85786839109023      -5.10508400492836
O        -0.76492006432712      -6.16030949203200      -0.46296038607537
O        -0.05019249471656      -8.17730301359838      -1.66449581591140
O         1.71942200381776      -7.77775037743562      -3.90346619289818
O         1.80003453578840      -5.51639231287743      -4.85539810702380
F         1.70942943650512      -7.46745590527271       0.74464939786854
F         2.17941498598029      -5.43599862789164      -0.10841244887827
F         2.84859440970101      -7.29370303249269      -1.19332685705529
F        -0.11729995161407      -7.42773560764887      -6.30472513821006
F        -1.18417256289018      -5.68356430492267      -5.35428915440138
F        -1.32465254601561      -7.73307698890184      -4.42517745993602
