44
C12H24F3NO3S optimized with DFTB in AMS.
N         0.13549292833131       0.16442276577861       0.52282335724601
C        -0.58943148525250      -0.07671916693819      -0.76350766604219
C        -0.96061558565050       0.08761342982479       1.53543417248423
C         1.17503808147091      -0.89250956741823       0.79150444267396
C        -1.93410840168288       0.63768743241141      -0.61298017894464
C        -2.12336108187697       0.83994766385086       0.89943671579360
C         0.75927141260500       1.54148693052631       0.48033239049927
C         2.05373789860726      -1.22867667243397      -0.41081859268488
C         1.11931651456164       2.12518498227189       1.83593941321748
C         3.16416173308521      -2.18766933937855       0.03823328437270
C         4.01161941239525      -2.64482814386087      -1.15234365497637
C         5.16686810507631      -3.53154532417221      -0.69156478599171
H         0.00923292996332       0.29657177513705      -1.59369471475687
H        -0.73174413755250      -1.15411836219471      -0.87078476082071
H        -1.21296579906346      -0.96671637363450       1.67149378879833
H        -0.62568249998694       0.50062566766479       2.48478962286018
H         1.79405945559917      -0.52384235409448       1.61094157096722
H         0.64358508727392      -1.78962720324692       1.12123696710217
H        -1.93122070454292       1.59522340222335      -1.13648901194536
H        -2.73096296130080       0.02328990097641      -1.03575721549500
H        -3.07511903620183       0.43597082939175       1.24735137664065
H        -2.08694695036098       1.90013861252191       1.15718274925033
H         0.05357061349154       2.20012609323923      -0.02946885207157
H         1.65832799006199       1.45854826050597      -0.13186492986451
H         2.50916481265389      -0.32351743572774      -0.81625522096089
H         1.45830456059124      -1.70009112491279      -1.19906306434568
H         0.24051901934405       2.46809672655293       2.38175695712512
H         1.67980608664692       1.41944536945520       2.44464683996790
H         1.76641899666397       2.98095194791685       1.64361954861005
H         2.71942697045751      -3.05890301872047       0.53276274267220
H         3.80107651489128      -1.67239634966477       0.76254316441002
H         3.38322965213955      -3.19551278636692      -1.86173493882212
H         4.41310244935193      -1.76851780120971      -1.66825410078960
H         5.75764738429231      -3.84931084807866      -1.55124633189290
H         5.81550730772522      -2.98203762428072      -0.00865422196521
H         4.79112929866491      -4.41844093515597      -0.17909928736916
S         4.34806711285305       1.78980800130278       0.65599133196828
O         5.28355780427256       2.44728778536343       1.52772116467530
O         3.46003395843720       2.66358051151621      -0.09719980533143
O         3.65382317736610       0.64152183475323       1.24252453254314
C         5.37296463159462       0.99484226865818      -0.67138065819805
F         6.00890568708496      -0.08248578563459      -0.21574138676711
F         6.26916338120369       1.82358171704553      -1.18476701134439
F         4.56781692241452       0.59029468733632      -1.66596792709779
