24
C6H8F2N2O4S2 optimized with DFTB in AMS.
N         0.68486555544076      -0.47132377003927       0.85710631114762
C         1.04913243375801       0.78602441643722       1.14992136799889
C         1.40364687470274      -1.22330569387443       0.00817111992607
C        -0.47876847175181      -1.06289373822139       1.51924654676991
C         2.16754377241600       1.34288601699884       0.56501310640519
C         2.52069876911153      -0.70592781237212      -0.61127101012886
C         2.92128245449054       0.59308953169637      -0.32798274289953
H         0.45028925659503       1.31399372858959       1.88142525716975
H         1.08233765114570      -2.24769895521893      -0.13320346092798
H        -0.25886274808255      -2.10493155961347       1.74548113872706
H        -0.67269262966093      -0.52420318252044       2.44413043646063
H        -1.33904070117132      -0.99492657933262       0.85295778816654
H         2.46044276828868       2.34839097157420       0.83791110831918
H         3.10116802099893      -1.33843539574421      -1.26962147965089
H         3.82724982818888       0.99654769344258      -0.76249223079402
N         3.47065766439595      -0.55031013195267       2.56138292547300
S         4.69328272678516      -1.32234254584200       1.89284394261086
S         2.35885332686583      -1.38668142905066       3.30973009338403
F         3.98629003215749      -2.37400496697835       0.85210221390231
F         3.02882693110264      -1.94397578911516       4.65867552091038
O         5.33436107373549      -0.38435930401935       1.02493799366421
O         5.47605452523489      -2.14597284779568       2.74620066858436
O         1.87688516382935      -2.55606243958099       2.62711209325883
O         1.37027674152301      -0.44253163786705       3.75315402902251
