61
C17H24F18NP optimized with ADF in AMS.
N         2.18719084136088      -0.78692341472820      -1.37865493463554
C         2.39141891224493      -2.28738745248989      -1.50100639339174
C         3.08719405037033      -0.24894548482857      -2.48242065019938
C         0.74993926567146      -0.37048553974903      -1.62045122813751
C         3.88639316087336      -2.45384426405147      -1.77196995481986
C         4.33810336447984      -1.12592204746762      -2.43521136158140
C         2.67554577105861      -0.30366817198649      -0.05407996326165
C        -0.25597114178287      -0.92277923940440      -0.62609313481999
C        -1.67015413506918      -0.47093563506115      -1.01051155410572
C        -2.74568801320433      -1.10050388279607      -0.12937344636651
C        -4.15809079159942      -0.67544327951046      -0.52855892731281
C        -5.23433339029489      -1.30002912038275       0.35502968972550
H         1.79030423158045      -2.60583646179313      -2.36195056700922
H         2.03215541180525      -2.77692085238595      -0.58753497333541
H         3.25671801769242       0.82187464269015      -2.30680294428982
H         2.53570342949814      -0.38911691131361      -3.42034827375241
H         0.51547676296757      -0.71516584776064      -2.63305864629048
H         0.75132042239038       0.73153992805594      -1.62764032225472
H         4.04578993312171      -3.31468316185086      -2.43442320173092
H         4.44376823889742      -2.64097556931321      -0.84176948582795
H         5.14815720212351      -0.65246947650979      -1.86083422238692
H         4.70506744426847      -1.28859762297007      -3.45700627767643
H         2.11300274688699      -0.80110986738900       0.74298996709000
H         3.74142143886448      -0.53808813172261       0.04239117294122
H         2.52608662486876       0.78199232260254      -0.00179928694427
H        -0.22422441839022      -2.02559584318587      -0.63517126924635
H        -0.03976856731498      -0.58803486927673       0.40311556506850
H        -1.86309552693267      -0.73769709101021      -2.06128488806245
H        -1.73526732277699       0.63107707592149      -0.94955862003999
H        -2.56764969597993      -0.83553561701026       0.93038943966584
H        -2.66801844020359      -2.20208533676328      -0.19595264446547
H        -4.23347946236292       0.42638100552867      -0.48393699116634
H        -4.33311140582751      -0.95559137301488      -1.58293893458113
H        -5.09427712087733      -1.01498037991260       1.41024904959691
H        -6.24050160841548      -0.97563118168447       0.04836985861603
H        -5.20274918366681      -2.39995287522138       0.29704587207189
P         0.69246191809700      -1.77622521246114      -6.00287518550826
F         1.96150354853638      -0.77828377054184      -6.42309673838273
F         0.02109635791468      -1.63516537191052      -7.50254348306376
F         1.31404262570619      -1.94850325802439      -4.40470027710554
C         1.92127448090254      -3.22867688077184      -6.60615291922654
C        -0.15527530086315      -0.09186810972053      -5.34107777558805
C        -0.86731111288972      -2.96341085738666      -5.55186091902578
C         3.27767649054947      -3.42068055393893      -5.84408825240164
C        -0.84452692800107       0.83640288886734      -6.37841536803504
C        -0.88332104485687      -3.73171361634965      -4.19870449212863
F         2.26960484144659      -2.95480049694453      -7.90691448387274
F         1.39133493337299      -4.50134623641352      -6.59799921307890
F         0.82707752698889       0.70240081457189      -4.75426366034604
F        -1.07891741964827      -0.29018699693127      -4.32980310764721
F        -1.01560508453362      -3.91793571930580      -6.52634592623808
F        -2.04278191197736      -2.24045715927469      -5.57199410893653
F         4.07531348910809      -4.25960475634988      -6.55698705951045
F         3.07840678336636      -3.99959027564370      -4.62427528764348
F         3.97568165531485      -2.27562000470018      -5.64556046859485
F        -1.28871276037655       1.96779478713058      -5.75003749922409
F         0.02138624375462       1.21608305001488      -7.34200413969339
F        -1.91237474069233       0.24025523790285      -6.94824454681437
F        -1.95850738602427      -4.55968773482555      -4.13418650104395
F        -0.97564955331122      -2.87743796253235      -3.13694029968886
F         0.22866578888996      -4.48448142851471      -4.02286238668457
