35
C11H20N2O2 optimized with ForceField in AMS.
N        -0.02032451754563      -1.32079622499180       0.35147527222577
N        -2.04850055462373      -0.41543549281261       0.25456724167505
C         1.33689175556468      -1.62184118636882       0.80323876880893
C         2.37625986394998      -0.86009083409287      -0.02980446372782
C         2.22178095051076       0.66129681545502       0.11247160742275
C        -0.93770835370733      -0.57641334015411       0.99911928322687
C        -0.57308401212883      -1.65030584329772      -0.83394736566744
C        -1.83090312549522      -1.08668552486162      -0.89482290994055
C        -3.21052969489553       0.40488038175326       0.58467823724455
C         3.30202123869850       1.40079544207801      -0.67037107969790
C        -3.19206713384442       1.69644732693043      -0.22553873061562
H         1.45235397849743      -1.35002041136280       1.87579456014935
H         1.51841159102905      -2.71448393921624       0.71246665979541
H         2.27842214084927      -1.14944846520801      -1.09898982327472
H         3.38995455851149      -1.16002172827871       0.31437742113178
H         1.22827330468909       0.97878549919057      -0.27166518706713
H         2.29250798492149       0.94878687109205       1.18415735412476
H        -0.78147778760011      -0.12297938825612       1.97066270954289
H        -0.08805744999551      -2.23169642089660      -1.60751696879007
H        -4.14160514356575      -0.16278634324012       0.37097575471876
H        -3.20105276922539       0.65920928932725       1.66719318192745
H        -2.52329700806455      -1.14062050606137      -1.72517513917349
H         3.25812344066938       1.12464473184742      -1.74538076534247
H         4.30683135414030       1.15275486628568      -0.26719299751733
H         3.14238173356038       2.49598804480169      -0.57986129018323
H        -2.26334613987264       2.26643071251677      -0.00857955086276
H        -4.06844088881959       2.32152955587408       0.04537467512205
H        -3.23457861857047       1.47077099196975      -1.31201029692068
C         4.88709478049313       3.59257224005299       2.44172596117286
C         4.46667383747673       5.01754762360887       2.61697618841697
O         5.02000336361364       5.71799498292751       3.44908973357155
O         3.57220320622304       5.48449511602159       1.93018143988419
H         5.95192906489065       3.55381142588006       2.12960983535104
H         4.76669345921187       3.04678244365522       3.40105063379676
H         4.26737799855385       3.09432610623128       1.66690391267150
