37
C13H18F3NO2 optimized with DFTB in AMS.
N         2.94604069742224       0.07222672328180       0.82497532307560
C        -0.55788327535405      -0.10036277647620      -0.65997845277475
C         0.52496296175530       0.02103298004454       0.41604142029594
C        -1.95930274654520      -0.03262340222248      -0.04564008250060
C         1.91777952820673      -0.04662545602532      -0.21229008839522
C        -3.04283865844317      -0.15263529921709      -1.12203958430376
C        -4.44238892581307      -0.08561253094128      -0.51322225848641
C         3.71088538388278      -1.00497546451281       1.12687181315642
C         3.26004388389274       1.30866262692323       1.29090032467946
C         4.61417403514056      -0.89041734204222       2.21612192620152
C         4.21401733148222       1.47165813631335       2.24975103397940
C         4.88889889290041       0.33681601223061       2.74552384542217
H        -0.43617508915011      -1.04993787757260      -1.19181975725770
H        -0.43711888665778       0.70837501620082      -1.38837366476754
H         0.41325082032283       0.97029635363664       0.94951854231895
H         0.41864700766437      -0.78844273179394       1.14555503722741
H        -2.07649267816690      -0.84173232287873       0.68356500964551
H        -2.07708842638315       0.91683942527094       0.48796952707851
H         2.07060467315701       0.76552139122513      -0.92819834770461
H         2.06385652343282      -0.99800017839711      -0.72831078891680
H        -2.92314461096077       0.65674679573978      -1.85003873729898
H        -2.92240753122071      -1.10192331438831      -1.65477652681264
H        -4.58887330745768       0.86292810800311       0.00533206153875
H        -5.19512947330621      -0.17292720905613      -1.29687897806468
H        -4.58818227998121      -0.89739682181505       0.20081732739024
H         3.30222567803432      -1.97250150176017       0.86050680775490
H         2.69364300738331       2.13378612874931       0.87807452688208
H         5.12708084178264      -1.78341725299935       2.54817644874454
H         4.43912626138626       2.45950067402986       2.62821220744265
H         5.60385507413033       0.44616675236289       3.55223350448702
C         5.06198329156827      -0.19116600162008      -1.20756436943379
O         4.46425268337511       0.85943225809762      -1.30413522667546
O         4.93237793447542      -1.15002372989194      -0.40421209279528
C         6.22491746264442      -0.47573085112481      -2.26355479632741
F         6.46109438945723       0.58500603611748      -3.03825544669699
F         5.90102245388168      -1.49911530031989      -3.06694628789122
F         7.37318194136100      -0.79288293527161      -1.65081510901722
