58
C18H37NO2 optimized with ADF in AMS.
N         0.46636529735810       1.60200097564731      -0.16174234508001
C        -0.26803163274364       2.84953879293397      -0.59206586895447
C         1.63790238004027       2.16389749078543       0.62782693791130
C        -0.38498438110838       0.72616221604838       0.73633365322943
C         0.95477187369959       0.85944341354531      -1.39602826926087
C         0.82199223004405       3.87508146069134      -0.92077426977193
C         2.08407731271033       3.38620624639271      -0.16219056744895
C        -1.58330761088776       0.09428365565701       0.05614354360854
C         1.83540555646500      -0.34526147951901      -1.07239247002892
C        -2.42154963085008      -0.65785333464088       1.09476049522027
C         3.33607984063811      -0.12151286179973      -1.29387203347600
C        -3.65423587726516      -1.32685749196389       0.49269405911375
C         4.16475222313829      -1.19999902362771      -0.59802869969454
C        -4.49079085486078      -2.07539911169621       1.52887593710653
C         5.66917978957051      -1.00059160463980      -0.76094794444211
C        -5.72507077330273      -2.74025338320315       0.92528930591223
C         6.48419473373259      -2.03453815065381       0.01254345732325
H        -0.94173778718478       2.61481999034002      -1.42606175345990
H        -0.86597058573868       3.15990431189733       0.27628660359027
H         1.25317956443809       2.37454593624378       1.64037365042657
H         2.37097583958823       1.36238212464618       0.77758101781391
H         0.31330025206663      -0.00398935037260       1.18833771887637
H        -0.68351617425444       1.37889014730301       1.57073189823706
H         0.04828045508574       0.58012819712255      -1.94949685440313
H         1.49486987038115       1.60172342116195      -2.00364256210023
H         1.00530692107377       3.93309953635560      -2.00348902382455
H         0.50174827287232       4.87391757472884      -0.59264192818885
H         2.48137242746530       4.14934487015783       0.52163122028328
H         2.88771948298609       3.13698949406274      -0.87198673002249
H        -2.21904218360847       0.85197134784303      -0.43890158169975
H        -1.26357925957057      -0.62148486983433      -0.72116527429078
H         1.69725476992784      -0.63035120871281      -0.01513233621426
H         1.49629104693623      -1.19974678628892      -1.68212277729887
H        -1.78769978022404      -1.41640320010272       1.58772644425182
H        -2.73501574614661       0.04385964951061       1.88893903653111
H         3.63268113669591       0.86005006927614      -0.88352000467374
H         3.56867264436810      -0.08822162477323      -2.37583004426448
H        -4.28514493911099      -0.56333703274081      -0.00139901899493
H        -3.34136167481008      -2.03156438696464      -0.30117218657835
H         3.89617918662264      -1.19750624855362       0.47493613717568
H         3.88093510874084      -2.19538825760147      -0.98973805530806
H        -4.79901264471580      -1.37141537085033       2.32350993274288
H        -3.86019113236277      -2.83774168117915       2.02094317497434
H         5.93680917392273      -1.03945213809722      -1.83351644900101
H         5.93775930253070       0.01326508818652      -0.40991465017231
H        -6.38530009049152      -1.99356225419869       0.45492898960993
H        -6.30858303725690      -3.27233034304101       1.69209132676118
H        -5.44052359009606      -3.47033068804741       0.15004259478051
H         6.25427351970285      -3.05623899350607      -0.33054246368488
H         7.56551951308233      -1.87046547921186      -0.11292184523924
H         6.25285727741724      -1.98477868909866       1.08863378888911
C         2.56295222937775      -0.50527767272486       4.42131348362971
C         1.86196463334892       0.12269227898319       3.20781677421852
O         2.04398332547652      -0.48473391147546       2.09462940060151
O         1.18000695613572       1.16952567159562       3.39817742397543
H         2.27752252127850      -1.56487525317320       4.50927173576377
H         3.65351573952155      -0.48238999314434       4.26725588122723
H         2.31313472694966       0.02870776522121       5.34834998539211
