25
C5H9F2N3O4S2 optimized with DFTB in AMS.
N         1.75299018982433       0.14957706825410      -0.03185064333036
N        -0.32273122568753       0.19017119867391       0.52708645627113
C         0.78131719072652      -0.55256498515787       0.54648411056309
C         1.26605101882286       1.37364703591345      -0.40242102915270
C        -0.04494411882373       1.39908783346650      -0.04778549776604
C         3.13528948759821      -0.27419221836784      -0.18805205475272
C        -1.60274274838992      -0.17263139293791       1.11373299251545
H         0.88204772779933      -1.52748207785416       0.99227615363297
H         1.88587864996858       2.11425827773615      -0.87644375768855
H        -0.78795982581937       2.17134802294567      -0.14054199495352
H         3.22695735428954      -1.30442080811715       0.14751153797700
H         3.42116823146298      -0.18750829041402      -1.23612374782460
H         3.77205846345662       0.36411895809305       0.42583590608700
H        -1.86417645338350       0.57836728378664       1.85925364431577
H        -2.36215052679347      -0.20560797253875       0.33206400150469
H        -1.50584213422843      -1.14465180607376       1.59163748754838
N         2.12403213400204       0.99998047642157       2.96228225535557
S         3.19221156472671      -0.12371295812110       3.30655366654594
S         0.64914563079467       0.77770197399270       3.50432399738713
F         2.65708163123451      -1.42071749825460       2.42011145660832
F         0.72186457968446       1.05042972478782       5.08389861403586
O         4.40409061524792       0.23154624170233       2.63837796153720
O         3.23618493393351      -0.61629580140336       4.63834747743518
O         0.12842980046451      -0.55662617110200       3.38822192714086
O        -0.15665429991136       1.84225768306865       2.98195689640696
