37
C11H24ClN optimized with ADF in AMS.
N        -1.05002315701460       0.05152038406937       0.15900954516914
C        -1.35703514197660      -0.90117220706210      -0.98743958891849
C        -2.29972119732259      -0.01040801734334       1.00520793468582
C         0.15099873118922      -0.41577060502472       0.94775615170093
C        -2.82902516129147      -0.65783654235600      -1.29941040659824
C        -3.46099347685786      -0.12158892421560       0.01331530966731
C        -0.85919010869261       1.45684726039170      -0.40706095308361
C         1.42597467066819      -0.49957476272358       0.13667947968776
C        -0.37024729212905       2.46973144371149       0.60519155792748
C         2.61639008781751      -0.86329364520344       1.02140873649569
C         3.87940466364419      -1.14195920601255       0.19981576488862
C         4.31182984754791       0.03759460093856      -0.67045534648566
H        -0.65235253124456      -0.67140965156994      -1.82473803697367
H        -1.18629098753812      -1.91291489049072      -0.58819247839029
H        -2.21301850649653      -0.91404065888943       1.62646402110118
H        -2.33881556305928       0.86882599164196       1.66113372005395
H         0.25490414903355       0.27042732856640       1.80322653352797
H        -0.12826187222369      -1.40628839375418       1.34458129635509
H        -2.92794355614995       0.07333173177694      -2.11536831658526
H        -3.30353699842319      -1.58967262931372      -1.63747056533250
H        -4.22795024840936      -0.80000566739261       0.41475425861186
H        -3.94288929778382       0.85385211271444      -0.14718005407485
H        -1.84278169107117       1.74475988560647      -0.80524425831170
H        -0.16637877578397       1.34231170207659      -1.27748417610727
H         1.61081719167872       0.44449906378461      -0.39727145406364
H         1.31510025741624      -1.24110042748970      -0.67185285824209
H        -0.99831468992571       2.53747834283980       1.50845960304784
H         0.67027079037353       2.28402488017673       0.90724019205408
H        -0.39152482346478       3.45668316068446       0.11816265184536
H         2.37670710164833      -1.75475127651556       1.63180291579982
H         2.81623883022753      -0.03630411604497       1.73050143599872
H         4.69356008761603      -1.42238775504688       0.89108161390969
H         3.69550523523678      -2.02077617921025      -0.44511357538597
H         5.27728209389570      -0.17171564990539      -1.15659418683248
H         3.57588995855505       0.24885157624658      -1.46372014843775
H         4.43589565043753       0.94824197841336      -0.05943154728525
Cl        0.87015921137293       0.44905152492519      -3.02689001731959
