31
C9H16F3NO2 optimized with ForceField in AMS.
N         0.81551891294920      -0.00522520817700      -0.03405624022536
C         0.05973495816834       1.22527784467742      -0.40955244727394
C         0.05170073244458      -1.23339690982266      -0.40066952026405
C        -1.37144394438608       1.25813089331877       0.15568614137313
C        -1.38006149977686      -1.25288158868736       0.16377185583898
C        -2.14219573718714       0.00388672697314      -0.24985642621632
C         1.15228926483612      -0.00140374400706       1.41277235065891
C         2.09282323714800      -0.01275551734864      -0.78871874679872
H        -0.01898128922954       1.30438605762019      -1.51885946208440
H         0.59825055348920       2.13643700102986      -0.06313072579807
H         0.58370679971245      -2.14531872165962      -0.04614388845510
H        -0.02590949662440      -1.32058797317667      -1.50944647639590
H        -1.89887569185898       2.15088710830092      -0.24438621106916
H        -1.35743670305936       1.35835555224449       1.26111488868960
H        -1.36771082519935      -1.34646913971648       1.26977958789108
H        -1.91311250973636      -2.14465711516528      -0.23092259001675
H        -3.14211384028191       0.00877741484277       0.23459285556653
H        -2.29408434076385       0.00075559572705      -1.35183285707919
H         0.25104241267236      -0.00099504995879       2.05596140664731
H         1.75056512043659      -0.89986235144501       1.68474523735428
H         1.74741980381070       0.90022565164177       1.68069747054089
H         1.91431662917451      -0.00349605377290      -1.88746678046315
H         2.71173899525940       0.87934228873252      -0.54093988970785
H         2.69141252460631      -0.92173482833819      -0.55368704795955
C         5.53918868443365      -0.52223234450273       1.88043384171856
O         4.45424503014519       0.03578576029091       1.91071131368891
O         6.10719903882780      -0.79222674117645       2.92624907935468
C         6.17739600269443      -0.87590685104823       0.56996847899806
F         7.41277888521560      -0.26255053431594       0.47783313654384
F         5.38853115830030      -0.45726458341792      -0.48685731714176
F         6.34316992387909      -2.24606272236287       0.49246438508452
