53
C15H29F6N2P optimized with ForceField in AMS.
N         3.01211671297305       0.91661342851065      -0.03080013693155
N         2.88976875085676      -1.29669649801356       0.16544061353492
C         1.43541601917803       2.80782027917721      -0.24927693526815
C         2.80345453390945       2.33297907731186       0.26724476473084
C         0.99898613340379      -2.63714367734518       1.03110900996590
C         2.49939439887031      -2.60407451578015       0.69400670177642
C         0.27670969817535       2.10759203654756       0.47818417841658
C         0.12878309860200      -2.30971447314215      -0.19315301957308
C        -1.08732431587416       2.55557445902928      -0.05964767222022
C        -1.36209429029755      -2.29688252102050       0.16010159342996
C         2.81559281092425      -0.11659051779943       0.81149971950218
C         3.22554862824004       0.37263941988165      -1.24559171150455
C         3.15622230801940      -1.00012423447334      -1.12320193748176
C        -2.22323647029862       1.85351873322649       0.69686236087518
C        -2.19698358221188      -1.79570652113379      -1.02602035357717
C        -3.58396766469252       2.15198352804360       0.07473872996700
C        -3.67782970858223      -1.71682558193447      -0.66889848222167
H         1.35751734359886       3.90569807131842      -0.08998878006087
H         1.36737641273953       2.61667937440712      -1.34258548348868
H         0.79217990676534      -1.90824664556514       1.84491491558196
H         0.73844335485245      -3.64984040429923       1.40936996077654
H         3.60862475641498       2.93116156622232      -0.21231997776709
H         2.86932204808798       2.50524404275701       1.36433844202548
H         3.08833387126827      -2.81821084745934       1.61179149191248
H         2.72841889855251      -3.40114515859986      -0.04778473170791
H         0.33866245123487       2.32885783321111       1.56658869576923
H         0.36198227065968       1.00975113565876       0.33759167804243
H         0.31428349838775      -3.06152266932140      -0.99151032427404
H         0.40521993802028      -1.30809687464568      -0.58492520435714
H        -1.19321373494979       3.65672231336833       0.05680997464760
H        -1.15014215422015       2.30528424311492      -1.14174747217427
H        -1.52841515886728      -1.62959408060414       1.03400990036730
H        -1.68429005036483      -3.32507462992194       0.43570064602612
H         2.53309848495574      -0.00911966301495       1.85120235967289
H         3.35687313991037       0.93254990421695      -2.16243921795171
H         3.20908511355982      -1.72085070149790      -1.92914498340043
H        -2.06184162267860       0.75571233098546       0.68286423175337
H        -2.22886738787575       2.18832719677362       1.75688947909294
H        -2.06948507670004      -2.48253683665934      -1.89089971992129
H        -1.85067889639283      -0.78363421017075      -1.33086970507552
H        -3.79445550701778       3.24193245381793       0.10713038706136
H        -3.61330369294749       1.80028455754726      -0.97889989378956
H        -4.37552869404721       1.62015258110173       0.64444158400874
H        -4.24792181311747      -1.32086261288224      -1.53578098505304
H        -3.83274983929894      -1.03681156181321       0.19557204979093
H        -4.06709191546169      -2.72558725943791      -0.41581415242022
P         7.10317609647105      -0.02323115582377      -0.12512349270309
F         8.20262034429758      -0.25349561324985       1.17381379846424
F         5.91820181305954       0.54411564730259       0.97967195278022
F         7.49080815270971       1.63827493417613      -0.32386765283632
F         6.32300460299009       0.10883039150773      -1.64951253115613
F         8.48075666578573      -0.66757013595115      -0.92368645482041
F         6.29260877872224      -1.52551271195530       0.06449358156306
