61
C17H24F18NP optimized with DFTB in AMS.
N         1.31382922612863       0.87167871716846       0.31859777369010
C         0.02339427548012       0.14194412504200       0.53256040953633
C         1.34747681303161       1.84537841536654       1.45991285748672
C         2.47774461848248      -0.07552263325316       0.44196974837988
C        -0.10650555955834      -0.02014323176066       2.04590243360780
C         0.76724534420070       1.08981380539172       2.65044029239223
C         1.28885699821806       1.58002718110921      -1.00381629879987
C         2.65387608336499      -1.04565457667173      -0.72201918900825
C         2.53459963624826       2.41751647731390      -1.28725301897459
C         3.71366312789354      -2.08785779230826      -0.33676578031278
C         2.41909308850346       3.05969710868780      -2.66763758422727
C         4.04592318639016      -2.99568411581155      -1.51746611276113
H        -0.78070991546427       0.76654236181542       0.13678244643280
H         0.03964705390037      -0.80394291485727      -0.00777300155526
H         2.36680510170889       2.18423532596816       1.62780167064253
H         0.71965274595624       2.69652189814946       1.18754062563504
H         2.33476605525419      -0.62808713835920       1.37259307094983
H         3.37575393233701       0.52989330446301       0.54288074585039
H        -1.15158185324664       0.08135145988238       2.34313880993706
H         0.24113117767573      -1.00532876525715       2.36253762984723
H         1.56461801636545       0.66678033880345       3.26366009318980
H         0.18316319107635       1.76700511194236       3.27524285003167
H         1.15283470649671       0.81635152761876      -1.77358866353881
H         0.40273617247298       2.22162030112339      -0.99829928948646
H         1.71440209787768      -1.55086559932110      -0.96701019671476
H         2.99313297485959      -0.50726269761103      -1.61074398918833
H         2.64060790944093       3.19738642862856      -0.53044950104991
H         3.42680904122403       1.79165549925930      -1.25377694163609
H         4.62011385306766      -1.57234879088771      -0.00922740253881
H         3.34431082973512      -2.68780890043556       0.50130583320798
H         2.31153050776262       2.29686694143755      -3.43981417095891
H         1.55882652053546       3.72865376882011      -2.71267119517279
H         3.32039189624247       3.63599473288109      -2.87090425669451
H         4.77143228210112      -3.74795229708064      -1.20894243619374
H         3.15090553243275      -3.50336746342674      -1.88049510898667
H         4.47498229581937      -2.41505055065063      -2.33453174519911
P         6.00742704697353       2.53204975861485       1.33729153004809
F         6.14089775409924       3.70458466966794       0.16409323692663
F         7.59866294509580       2.66280046879817       1.78228276925136
F         4.32631496036066       2.36014732887836       0.94703973908921
C         5.55461379055999       4.04064594901726       2.50559362278449
C         6.49059517645220       1.23755378833545      -0.11796291362007
C         5.69864699507432       1.00914265113927       2.64981921760578
C         4.21978928002952       4.79584859052888       2.24599913467316
C         7.49490553648292       0.05937388120419       0.09510080802228
C         4.82126580433667       1.02289025501262       3.93254708973114
F         6.52955203685064       4.95456809855187       2.39911240822790
F         5.51978552993883       3.65080862273805       3.79497396865667
F         7.02447517557794       1.94231533886961      -1.12621325089512
F         5.36573267496331       0.66096996967861      -0.62278754610643
F         6.87721726606921       0.47286259359566       3.00072276962457
F         5.06327222009850       0.07978627629929       1.87419883610243
F         4.18606027903230       5.93760377935960       2.92889003223404
F         3.16749449970834       4.06380217212661       2.64301903230214
F         4.03492990337549       5.08384939372928       0.96050695193539
F         7.95754387302219      -0.32994506152208      -1.09720225212636
F         8.53528499458431       0.40504243677743       0.83928930912079
F         6.91457569713942      -1.00490205864087       0.64876262973921
F         5.44281625849521       1.49752193341401       4.99629070740831
F         4.42278941844359      -0.22280898146265       4.21963221434347
F         3.70138414272037       1.73593963000830       3.72604152360154
