37
C11H20F3NO2 optimized with ADF in AMS.
N        -0.27528340236628       0.07716830572142       0.41868185965960
C        -1.24572056860227       1.20569953617039       0.07727345323004
C        -0.54703960770260      -1.11233884690169      -0.46909457257724
C         1.12019691433017       0.63433345131424       0.15846759484048
C        -2.69823122058886       0.77295302319129       0.13209955252646
C        -1.99382130032807      -1.57943997692857      -0.38911465923686
C        -2.96174221781169      -0.45035252439175      -0.74545402549818
C        -0.40630529257856      -0.28865844250678       1.87125574656280
C         2.27599462052002      -0.28124986352380       0.52222541528366
C         3.59386125585054       0.41651231498315       0.17835758680486
H        -0.97014848896518       1.52227504873674      -0.94249130657192
H        -1.00685679123536       2.00731529741735       0.79897126654446
H         0.15175895930870      -1.90618030442277      -0.17106211558206
H        -0.30024602365132      -0.79172353446418      -1.49525710737176
H         1.16470923682383       1.56732883190644       0.74599610355404
H         1.14414524760271       0.87634732935833      -0.91721402150054
H        -3.29981224185282       1.63502982913816      -0.20036434667249
H        -2.99997205859399       0.58675811813206       1.17529306646351
H        -2.21010019953272      -1.96866743714058       0.62019933418578
H        -2.10610642248997      -2.43186899212485      -1.07978439664683
H        -4.00359345803259      -0.79125430754983      -0.63326651775425
H        -2.82237326550247      -0.17873941961836      -1.80885259726592
H         0.23264264152496      -1.15657055311976       2.07042561285658
H        -0.11087566866480       0.61103888544135       2.44198328755342
H        -1.44897010402333      -0.53525558736801       2.08753434577844
H         2.26140857186739      -0.49704448977312       1.60203223454493
H         2.21885445168555      -1.24144187596232      -0.01760644540783
H         3.66502385740505       0.62879952255245      -0.90022103354910
H         3.67928934200418       1.36991509085290       0.72147172319967
H         4.44990700679237      -0.21353152404634       0.45795913341650
C        -0.29801323698100       3.28419546765083       3.27123371695794
O         0.19649379552184       2.53939789198800       2.36412681577851
O         0.05075950422162       4.38237027712001       3.70835490581482
C        -1.58628371098617       2.64743467733641       3.92232640050434
F        -1.31126839387726       1.43297689770598       4.52500438066704
F        -2.55677510394825       2.37508363083861       2.96432702058279
F        -2.18283441064340       3.41862245128658       4.86079036822431
