60
C16H30F6N2O4S2 optimized with ForceField in AMS.
N        -0.07000340210941       1.47265749235210      -0.01024572458592
C         0.51949449975559       2.40706597145765       0.99845913096039
C        -0.73324006585235       2.35918112223939      -1.01491032403877
C         1.01370116904260       0.68624550103385      -0.68408848326291
C        -1.08407734573577       0.59720081388672       0.66169523181591
C        -0.00767403964957       3.80184427920899       0.71929612758382
C        -0.28486595608155       3.78450770878818      -0.75665396379215
C         1.76842397146122      -0.29832421298604       0.24135850020775
C        -1.78158472319505      -0.42349050661336      -0.26974607429374
C         2.98213391485467      -0.89707066448325      -0.48171676873020
C        -2.88131813736452      -1.17747747469259       0.49076838262355
C         3.71947680997453      -1.90335129603140       0.40916897017440
C        -3.59809369099323      -2.18352856876752      -0.41612062885976
C         4.92663917495465      -2.49531111778464      -0.31296336835695
C        -4.67095355177734      -2.95049046484207       0.35138984895187
H         1.63005508970075       2.46103255734914       0.92587619847204
H         0.28898015209497       2.12222886322267       2.05083828991623
H        -1.84309299256447       2.34898599395547      -0.91709507365026
H        -0.50745088542467       2.07713229496684      -2.06895018615613
H         1.75530765658020       1.38931778702223      -1.13064621760673
H         0.60208198559615       0.10959761350313      -1.54199955846356
H        -1.86978767589618       1.23577134715738       1.12923681982067
H        -0.61790835878615       0.03977863149038       1.50418513208314
H         0.72967028264790       4.58919581767011       0.98906181215092
H        -0.95490932760447       3.96773719441240       1.27936616335461
H        -1.06553019652473       4.52529290888243      -1.03620578321327
H         0.65159109509704       3.99519303332773      -1.31961190817786
H         1.09474840614240      -1.12889969360699       0.53928433416308
H         2.11598855934211       0.21533712918905       1.16227324639701
H        -1.04690913722051      -1.16601803879880      -0.64464416251243
H        -2.23474455512985       0.09032907308591      -1.14332993903921
H         3.68119741125771      -0.07957916018274      -0.76597907667139
H         2.64114787787281      -1.40858752748172      -1.40906035505703
H        -3.62406990524611      -0.44964155486881       0.88591235627045
H        -2.42562551689378      -1.71779290816982       1.35000108295347
H         3.03050474330142      -2.72853670146129       0.69319635066318
H         4.06745061071390      -1.39946610619874       1.33738712337553
H        -2.86341090777815      -2.91068558773489      -0.82102632828334
H        -4.07469144534917      -1.64980283780415      -1.26726456361231
H         5.43505046747297      -3.22661355513790       0.35017885811922
H         4.60464989036103      -3.01897622953792      -1.23844562016772
H         5.64916042147884      -1.69396637722887      -0.57783138712305
H        -5.17510152300721      -3.66699537256671      -0.33090262787505
H        -4.21316421394108      -3.52003442135746       1.18839476312790
H        -5.43170195728746      -2.25012800818998       0.75743237873667
N        -0.80494673202983      -2.78149078045253      -5.51216553984603
S         0.64664327862518      -2.06042335569089      -5.26927502196363
S        -1.10592257529204      -4.33571569651103      -5.08722174036496
C         1.64779407656491      -2.26630783289541      -6.72820503852674
C        -1.92113794930864      -4.35388235886194      -3.50524626227643
O         0.43333131017399      -0.59295096336113      -5.02884374245543
O         1.35067714663505      -2.66602971815785      -4.08667832894135
O         0.17111848814814      -5.12489570151212      -5.00205981712375
O        -2.01435983125337      -4.95876426576705      -6.10865631023218
F         2.86482261210568      -1.63754998922182      -6.54655190565506
F         1.00027004449815      -1.70699240142978      -7.81360252748292
F         1.85814090595409      -3.61146319412070      -6.96522151370834
F        -2.18130914154657      -5.65918396611789      -3.13351111804626
F        -3.11091443949911      -3.65559803226457      -3.59147151383635
F        -1.10738439876630      -3.76067393960939      -2.55893591683269
