24
C6H12F3NO2 optimized with ForceField in AMS.
N        -0.00197905435335      -0.00020131620758      -0.00387217919518
C        -0.91561407027730      -1.11239721335364       0.33919223931082
C         0.66101577325779       0.49032963569288       1.22479669271523
C        -0.77416627057760       1.10080719750819      -0.62078612627486
C         1.02037004988332      -0.48018050132335      -0.95950177947332
H        -0.35979703951738      -1.95434383922147       0.80996073500250
H        -1.70006519895278      -0.77837398287745       1.05481552604191
H        -1.42502710400792      -1.50471295688643      -0.56950557548804
H         1.35716093347820       1.32829487060165       0.99571301557048
H        -0.08774710702844       0.85951135146643       1.96135309998140
H         1.24925269220935      -0.31959338906646       1.71160272966112
H        -0.10990868230926       1.95385190308245      -0.88589416276542
H        -1.28110216083756       0.75979294530099      -1.55136945347782
H        -1.55609131729835       1.47882291426987       0.07550276597188
H         1.73642570904494       0.33144413504648      -1.21971198143674
H         1.59964847531866      -1.32709047956283      -0.53004761022130
H         0.54914451367458      -0.83689468829217      -1.90260232235838
C         5.11950938891066      -0.75670651354648       0.23106260097465
O         3.99576191795425      -1.04619753222389       0.60891981232521
O         5.99850377002841      -1.60335624909283       0.25164271720969
C         5.42870238407412       0.63152140177173      -0.24559045395428
F         6.33715534747742       1.22036479606760       0.61396156822613
F         4.27937678249768       1.40211208557746      -0.28425639496735
F         5.97492141605056       0.57559965916885      -1.51456367337832
