53
C15H17F18N2P optimized with DFTB in AMS.
N         3.36011899860230      -0.71018651458994      -0.93650999964319
N         2.77639220405220       0.57050855419199       0.69098929036303
C         3.99761777888455      -1.17530774462639      -2.16442381214239
C         3.06675161758815      -0.98077156203916      -3.36320895335823
C         2.82065802518042       0.49949829611226      -3.67221152303822
C         3.45772216501751       0.52352823760064      -0.45049584858366
C         2.59446325359951      -1.46667128117519      -0.09247497298733
C         2.22677972266341      -0.65708441825204       0.93655685394803
C         2.69516420256890       1.74341668007774       1.55877546391075
C         1.93242950144663       0.66272908564282      -4.90377613545403
C         1.85024205350412       2.82821941490141       0.90321209759620
H         4.92203427947398      -0.60778303982871      -2.29288299021900
H         4.23911029539846      -2.23228028676932      -2.03169064709503
H         2.11584522167213      -1.48840287402902      -3.17202290645618
H         3.53658098114051      -1.45819360235076      -4.22780783692621
H         2.34113235661497       0.97928481451527      -2.81206181245239
H         3.78052944905805       0.99656610123366      -3.84229777877129
H         4.01961041464981       1.32871737129541      -0.88591442148709
H         2.38678766471746      -2.50505546584258      -0.28241969334965
H         2.25900479312979       1.42306808929407       2.50756230278595
H         3.71507815741426       2.09769693699557       1.73100394432565
H         1.63877397108331      -0.85623166379100       1.81524434231570
H         0.95462909528145       0.20984765793653      -4.73346927008799
H         2.39209995405611       0.18213566834644      -5.76818124099440
H         1.79330766870588       1.72052646864966      -5.12472413542684
H         2.30713680454440       3.15119085061541      -0.03090698039138
H         1.78643730735694       3.68206765658755       1.57570147114538
H         0.84487163258612       2.46088638106368       0.69799797660802
P         7.02028225159376       1.45457959155654      -0.00378540076329
F         5.60902089725891       2.18018861742557       0.66341251469855
F         6.02844964841503       0.11710914989665      -0.42833450746074
F         7.96776721244339       2.76555197243942       0.40328422474791
C         6.49769661099337       2.39254695914349      -1.65719324924043
C         7.27324668598357       0.73692195488222       1.80536569831351
C         8.50035987287271       0.45889307102823      -0.86270311687048
C         5.67902483515456       3.70820925997874      -1.52952956843281
C         6.37538773302867      -0.44612518256562       2.25525663747434
C         9.95067686374073       1.01195980337770      -0.89153425118386
F         5.73228124315494       1.59492450211319      -2.45059226927213
F         7.59839952781703       2.70224454130955      -2.35523025413281
F         7.02876949153913       1.72773768710289       2.68118679875337
F         8.54723568464680       0.35831039745271       1.99197048676463
F         8.14269727134852       0.22692225579924      -2.14245238645274
F         8.55782790968258      -0.74686964999052      -0.26099105492886
F         5.68529421031971       4.37035545361890      -2.68510861391654
F         6.12724339010023       4.51837513656968      -0.58666813968846
F         4.38942313235697       3.42141915116489      -1.25448112646781
F         6.58338361491334      -0.73329027003812       3.53944292486969
F         5.07569365512239      -0.12683464413806       2.12821284948520
F         6.58849480167923      -1.55097450310839       1.55092527994279
F        10.76148323640165       0.13896188101430      -1.49242564318125
F        10.40887682117674       1.21897150375759       0.33811228665124
F        10.01752343206461       2.15892260684316      -1.55958314064323
