30
C8H8F6N2O4S2 optimized with ADF in AMS.
N         1.98162734420343       0.14290047205619      -0.13629785887735
C         1.92337103561071       1.38086597199359       0.40252417542390
C         2.19311386659985      -0.94240303053807       0.63561097217752
C         1.90376327162527       0.00897731057728      -1.60215066451565
C         2.06269881247161       1.55725211549460       1.76480180178593
C         2.32890051717987      -0.81562616810200       2.00367820487685
C         2.26941006673623       0.44940639813383       2.57961633745083
H         1.79536424437816       2.20419080997273      -0.29450550842870
H         2.27596347274528      -1.89367927374205       0.11665785748197
H         2.13278360732506      -1.02527631312499      -1.87503995938791
H         0.89113486375303       0.28185828819691      -1.92872409207419
H         2.65971396958736       0.67891076853506      -2.02958861958485
H         2.03908356298340       2.56834293899247       2.16928517535676
H         2.50746190053818      -1.70854890909894       2.60187620570468
H         2.39997565758436       0.57257445721337       3.65559633970070
N         6.40501137572443       1.28136725613823      -1.16466936315089
S         5.41305047998569       2.51590313513517      -0.93494659494596
S         5.96936171834987      -0.26173366281674      -1.09365903114439
C         5.51133061477789       2.80143701609889       0.93505247569616
C         5.61269963867688      -0.68996254972822      -2.89682041374677
O         6.00221269847623       3.71581184254100      -1.50006790398746
O         3.98103553099077       2.25872898748719      -1.16152617004671
O         4.68364426952093      -0.53958850649251      -0.43792702567676
O         7.12810512108076      -1.07053499225334      -0.76151533114627
F         4.58029600010426       3.73239995543204       1.29891804332675
F         6.72680169913313       3.25140900277770       1.29732068161054
F         5.24657471367386       1.66429086644494       1.63174219615320
F         6.72173053088733      -0.64040676132368      -3.65634542320065
F         4.68661794525123       0.15481910563542      -3.42980007392526
F         5.10127128484493      -1.95181109403606      -2.95374988630603
