35
C9H20BF4N optimized with ADF in AMS.
N        -0.02315643773551       0.07864979907464       0.23443245418166
C        -0.25194917594200      -0.76046829850001      -1.01091621301596
C        -1.35606107882546       0.00659881553081       0.94253028054908
C        -1.67845735476298      -0.43215591403906      -1.44770140249543
C        -2.41363270386586       0.03708361100623      -0.16487507440283
C         1.06696150298100      -0.51500189918305       1.10294162289000
C         0.27539757480678       1.51677079077275      -0.18431432842483
C         2.43156627821852      -0.55127625307710       0.44936203395003
C         0.70359239235197       2.42415536631242       0.94831428232455
C         3.44295259186326      -1.26067919227924       1.34644526858846
H        -0.16031874206742      -1.80870033586421      -0.68810539727242
H         0.52729577867560      -0.51796589185036      -1.74843396953381
H        -1.42278083702386       0.82865442487620       1.66615076333973
H        -1.36839371527186      -0.94805169556724       1.48817204591977
H        -2.14966531641788      -1.31850070435297      -1.89591915097131
H        -1.67674155162011       0.35661618790475      -2.21337180609499
H        -2.82754990304552       1.04713597471474      -0.29436847850130
H        -3.25148203142314      -0.62274726414791       0.10238936414950
H         0.71566544638394      -1.53189813692247       1.34636660810685
H         1.07707017360528       0.06964523049064       2.03604087142854
H         1.06268264240722       1.46769006641854      -0.95008410567268
H        -0.64850047177827       1.87834825207383      -0.65888699385211
H         2.38672124381135      -1.06299796028771      -0.52315427114306
H         2.78635472283024       0.46397668659744       0.22378558019526
H        -0.00727084709283       2.46048395064692       1.78768667545325
H         1.70339355378417       2.16224140856670       1.31794666561862
H         0.78449973456989       3.44000363437219       0.53359188262762
H         3.54349271528882      -0.76155493045877       2.32372760554801
H         3.16552778808942      -2.31237529907397       1.52549648722908
H         4.42635699553348      -1.24625058323411       0.85495704505444
B         3.27178246480102       1.14785949214228      -2.37848990286360
F         1.96401436970494       0.56763066996844      -2.67546670086960
F         3.75946226075328       1.80781843092920      -3.50420023576194
F         4.13086828924720       0.11076651231034      -1.94711439853591
F         3.06896715436532       2.07760635002913      -1.29207906544266
