38
C10H20F3NO3S optimized with ADF in AMS.
C         2.71732106239818       0.50715378181666       1.75599262995760
C         1.86518753623510       1.35831957619299       0.82077562560547
H         1.50685066000415      -0.95020601324463      -0.60470005688877
H         0.36687922492593      -1.58892097712787       0.65866013871896
H         3.13558690098633      -1.54112461464883       1.02440905232777
H         1.95521597895027      -1.47165813748452       2.34971148097005
H         2.51491033957735       0.75292737694114       2.80843463595042
H         3.78400495102675       0.69840572817210       1.57361858358941
H         1.57902010323004       2.34520998599536       1.21035206477055
H         2.34194870754226       1.47820632701401      -0.16461118223409
H        -1.11487255079165      -0.07634924343300       1.69066894278359
C        -0.29401115731176       0.63998996654106       1.77920227202654
H         0.26546040883098       0.36711250821096       2.67788405753699
H        -0.66365641671956       1.67158890836902       1.84936814680506
C        -0.08662122506433       1.05369870303632      -0.66109473952189
H        -0.11831412657109       2.14989799727365      -0.55090224065965
H         0.58894486438305       0.81422810344208      -1.49798686429740
H        -2.18246443993704       0.87761867350836      -0.14509909843768
H        -3.14626809405751      -2.40493411688103      -1.80332828735442
C        -1.64522025594938      -0.97793022764069      -1.13188404860271
H        -0.86187804902653      -1.34430314729273      -1.82045699816338
H        -1.50999914287935      -1.51073387449650      -0.17691897663295
C        -3.02426903308831      -1.31837311521550      -1.69141486428104
H        -3.17962528065079      -0.85134400337521      -2.67746995137742
N         0.60866381684627       0.54443357270997       0.58344085837423
C         1.16113757037378      -0.86836827272104       0.43604326751046
C         2.30629070985722      -0.95555886589575       1.44591739722885
H        -3.81738223552067      -0.96060209615795      -1.01628815448707
C        -1.48865252101046       0.52964631679487      -0.92861274661388
H        -1.80243875799576       1.04914370915136      -1.85414857316963
S        -1.20206886070098      -2.22110575095700       3.68942323583286
O        -0.46474978092654      -2.40577679139688       2.41012351253723
O        -1.90936327387095      -3.39809921385813       4.18623342539995
O        -1.89849462478351      -0.92373620367361       3.78291131520496
C         0.20831496561335      -2.01808415427797       4.91743945887188
F         0.94400693202564      -0.87310529051336       4.65514180734103
F         1.08322986943243      -3.05750457575866       4.86350026336382
F        -0.24438026738292      -1.91335791301905       6.18829574251430
