38
C12H22N2O2 optimized with ForceField in AMS.
N         0.38712747860401      -1.60188528367599       0.29752431024600
N        -1.74050997716209      -0.95765580025914       0.25589001426576
C         1.78560676881263      -1.71388832852114       0.70768020747089
C         2.66657688079795      -0.72683413400370      -0.07016633267955
C        -2.98685395267829      -0.28830938060519       0.62441322266929
C        -0.60364090478088      -0.99304988633627       0.97765524250799
C         2.27862295877366       0.73149002418647       0.21487952599504
C        -0.14333298307073      -1.97482633384599      -0.88480611895041
C        -1.46461300482500      -1.57814508898421      -0.90937728526495
C        -3.23766165033401       0.94116741178951      -0.25910074823456
C         3.20908017410803       1.70374404155287      -0.50257085001694
C        -2.12772985097244       1.98356938228535      -0.12428273604888
H         1.88104081277803      -1.51516605635121       1.79806327532964
H         2.13907219767703      -2.75147592314695       0.52433960606981
H         2.58032086727106      -0.93193251401468      -1.15970943949149
H         3.72524625425238      -0.89061690281979       0.22761882999568
H        -2.95030892781977       0.02695522844549       1.69071962509780
H        -3.83164140505498      -1.00153566134439       0.51405505301289
H        -0.48377636063486      -0.53548962413297       1.95218809920172
H         1.24059436879674       0.92020263998692      -0.13246686530991
H         2.32492548156516       0.92699370780698       1.30839936267740
H         0.39720953447279      -2.46824622268683      -1.68215011971618
H        -2.16022475214747      -1.70250517678756      -1.72913838839594
H        -3.32438428132350       0.63172189993726      -1.32304487271781
H        -4.20206144968248       1.40471747091844       0.04071674096934
H         3.17381525974167       1.53388154639383      -1.59966599488380
H         4.25152476176636       1.57518345400830      -0.14513793894577
H         2.88896113235932       2.74637416259541      -0.29370710408727
H        -1.17535759802881       1.59043413124211      -0.53779307461204
H        -1.97917526168308       2.25872782635462       0.94156548478767
H        -2.40327610673959       2.89665402124965      -0.69262282869513
C         6.28658454726683       0.78555058260367       2.42563071909001
C         7.72758943928566       0.41960361025187       2.58987987735419
O         8.59431517449102       1.11963078002342       2.09180102196054
O         8.04176053299942      -0.57760628528774       3.21964779449056
H         6.10023550053225       1.78081377125199       2.88121327101505
H         6.03626501219503       0.82442864223721       1.34555610910738
H         5.63128493299094       0.03605137938237       2.91893901133599
