40
C10H22F6NP optimized with ForceField in AMS.
N        -0.51150568635745       0.00793243731227       0.00061006049506
C        -1.43376753632365      -0.56568897605941      -1.02773416802203
C        -1.40905604456878       0.60873736795584       1.03517022058169
C        -2.84060467065750      -0.08363751185557      -0.72927371315976
C        -2.82957114939690       0.15893027609321       0.75340720456229
C         0.33548646223963       1.07337890385034      -0.62850203189803
C         0.30825895776690      -1.08174205742648       0.62480640823994
C         1.35499211698380       1.73226100022192       0.33155516476659
C         1.30175783704198      -1.77176457948663      -0.34091465702834
C         2.06369580205640       2.90218792721256      -0.34500824503623
C         1.99442900870275      -2.94953972880797       0.33898030619085
H        -1.15604542548571      -0.29029452057261      -2.07069383002984
H        -1.46182441386623      -1.67917728946484      -0.99596633663337
H        -1.12683028560383       0.33301846047112       2.07679733706457
H        -1.41112048507697       1.72251308326081       0.99697675275554
H        -3.03500929851509       0.87039008109531      -1.26742084599164
H        -3.60836431512270      -0.83699706023747      -1.01137009902052
H        -3.03920932352108      -0.79039124367334       1.29404727690852
H        -3.57650300892871       0.92977901968972       1.04417305290172
H         0.88990653464977       0.66664178567807      -1.50259527725446
H        -0.32236128170786       1.87161956758695      -1.04447448848929
H         0.88043183207523      -0.69051620151888       1.49460177114872
H        -0.36999559705202      -1.86018766244171       1.04549499906558
H         0.85331544067620       2.10852788097937       1.24737071793035
H         2.13115381024876       1.00083328558317       0.63826531447345
H         2.09014701496677      -1.06120191614657      -0.66473915612985
H         0.78039314992545      -2.14624698459214      -1.24631438188602
H         2.62268225390987       2.54839879171065      -1.23769149936868
H         1.32810449664067       3.67485281725624      -0.65432683915735
H         2.78333449675645       3.36282170204959       0.36465447962478
H         2.59425100811107      -2.59444512550139       1.20409775898036
H         1.24625716396617      -3.68931220267104       0.69246400250536
H         2.67360938239590      -3.45070908620430      -0.38300002453319
P         0.20820690664038      -7.29626809633414      -0.24932634021647
F         0.67661586955805      -8.91715315114342      -0.57237253088863
F         1.36341759658536      -6.69779423632556      -1.37111847498557
F        -0.95669832611325      -7.43816131578433      -1.50383016566172
F        -0.38036815045386      -5.71047051138500       0.04808165817752
F        -0.88213911414306      -7.88468757202425       0.94062892108543
F         1.41703802959710      -7.13426267375007       0.96047858443266
