55
C17H35NO2 optimized with ForceField in AMS.
N        -1.09430139337768       0.81664140549399      -0.18024593717982
C        -1.56759692678515       1.86421524232137       0.78385740086273
C        -2.08179135497468       0.71643957583730      -1.30456693387725
C         0.20072669534214       1.27713661470591      -0.79037601306004
C        -0.93187826421889      -0.49327767954064       0.54343646810798
C        -3.00920840956292       1.64851123765630       1.28812846176723
C        -3.52563875625453       0.44363047434313      -0.85127956037030
C        -3.98927610562980       1.51778339078478       0.12680344819898
C         1.40762573680186       1.37079573258246       0.17635037119042
C        -0.35083038026762      -1.65836878391618      -0.29507007438370
C         2.64927230219953       1.88538973271907      -0.56327984567493
C        -0.20865300739646      -2.92301452608727       0.56250131739718
C         3.86355622359178       1.95228550434415       0.36994371210565
C         0.36883559083712      -4.08302474267902      -0.25716129531254
C         5.09203651710969       2.47621476254629      -0.36736082817338
C         0.49276539754236      -5.34739318134344       0.58758731065176
H        -1.52659316518269       2.87424193942288       0.31431453809842
H        -0.91543481481088       1.90355890232172       1.68260613407777
H        -1.78582235857536      -0.05886803558250      -2.04109837515096
H        -2.10139063762412       1.67091114400017      -1.88173206305934
H         0.06452888832191       2.28394673140134      -1.24998331898020
H         0.48583572975682       0.61646982388231      -1.63961341722448
H        -1.90028474843190      -0.84321712179026       0.95017832495029
H        -0.29216998218990      -0.35593050883194       1.44290961484456
H        -3.30744743615622       2.52055996226129       1.90942038487964
H        -3.07192341696051       0.75527997614240       1.94385630677442
H        -3.62236304732484      -0.56487361592927      -0.39934203486147
H        -4.19133057240356       0.46147914266602      -1.74124759411916
H        -4.06859529413796       2.49323181532209      -0.40217604058255
H        -4.99578477555413       1.25496469452129       0.51738919449075
H         1.18668594580781       2.06914237023637       1.00904983464970
H         1.64899053617313       0.37384752760732       0.59843480336607
H        -1.02272199827543      -1.89585071435874      -1.14442492553334
H         0.65167443798613      -1.39892714597938      -0.69131157699980
H         2.44088711532507       2.90087894220433      -0.96736301651477
H         2.87941920130371       1.20671278411222      -1.41439753094041
H         0.46413841441215      -2.71182423374600       1.42315666938013
H        -1.20720907937518      -3.21396529493758       0.95777366274837
H         4.08823003798169       0.93837724640967       0.76792272921605
H         3.64312215623364       2.62643339159560       1.22633872668429
H         1.37551994225346      -3.80628621167465      -0.63996172026838
H        -0.29250495366795      -4.29543113947635      -1.12551188316920
H         5.94802951755162       2.53612140041095       0.33526729152953
H         5.36194709414903       1.79326549645035      -1.20109567109539
H         4.89632112497600       3.49198294217171      -0.77222794645092
H         0.91652800734369      -6.16627145072826      -0.03121124996946
H         1.16706364362096      -5.16943674427372       1.45239230673087
H        -0.50583204723445      -5.66272746934361       0.95875003557511
C         9.28519872162336      -0.15722077732748       2.79717943768936
C         9.01464917480169       1.24371800329535       2.34771300067407
O         8.00900052699684       1.49191933659672       1.70342849753591
O         9.79486663500603       2.14094172150232       2.62289217953506
H         8.46037004962233      -0.50264594457702       3.45535497773566
H         9.35118817671907      -0.82624823506591       1.91343416316180
H        10.24144161368217      -0.21054727407992       3.36049321254203
