33
C7H16F2N2O4S2 optimized with ADF in AMS.
N         0.94315419242932      -0.29763528450059       0.18637973667947
C         0.37423379265314       1.10470255527819       0.38265946577717
C        -0.07200815826262      -1.13921705414183      -0.55896887622181
C        -0.96064292900796       1.09367276939810       1.09923163221823
C        -1.42615110803503      -1.17806002465697       0.13388276481747
C        -1.97998545175622       0.23050109770607       0.35909563300466
C         1.30390952882113      -0.92707726802770       1.50251940008066
C         2.19593179607044      -0.18124815657728      -0.62724668040800
H         0.27646761837897       1.51971392548473      -0.63414987050896
H         1.13801914615024       1.66465484433199       0.93758012616341
H         0.36590404260047      -2.14278736003221      -0.67414717602744
H        -0.16494646226437      -0.68055879213202      -1.55714043647194
H        -1.29215506562858       2.14222542729285       1.16650619725226
H        -0.82629033875620       0.76432359312461       2.14218696740849
H        -1.35053904575625      -1.71999196968529       1.09130676871538
H        -2.10329939443934      -1.77007445760368      -0.50462210690333
H        -2.92532966883848       0.18005863100730       0.92132700737136
H        -2.21118908774037       0.69079205747515      -0.61975424177058
H         0.42360776329254      -0.97776317450682       2.14710609653836
H         1.69135139523709      -1.93365537886537       1.29725824590025
H         2.05945971339827      -0.29004199541281       1.98246933331917
H         1.94357891820552       0.26591501709759      -1.59709301027543
H         2.90738488813251       0.46307986872830      -0.08948391510302
H         2.61351774894519      -1.18643260335728      -0.77165749454430
N         2.63086106693419       1.79391954772471       2.57856272103284
S         3.63484042661201       2.86752747682268       1.90810445514447
S         1.63331121861352       2.20177383527980       3.77522267576466
F         4.86070068977105       2.97566750032318       2.98947534173817
F         0.53482297939818       3.19277425596816       3.00261779570228
O         4.21762679861707       2.18899063282118       0.75769572196985
O         3.12198185047351       4.21574288153805       1.78395558447072
O         2.17909915290511       3.02345171919967       4.83058084725071
O         0.84821971024592       1.01053217909752       4.06719815981477
