28
C8H14F3NO2 optimized with DFTB in AMS.
N         0.78869817699962      -0.39842616941680       0.31322752329975
C        -0.34319064136267       0.44552055570933       0.84571215904205
C         0.28601622502841      -1.81303441162218       0.34730850066208
C        -1.60467548908974      -0.41628287932403       0.77273965244967
C        -1.19576147397828      -1.69322971738435       0.03504661124226
C         2.00700203261082      -0.25369010509802       1.15358780074921
C         1.10890376059932      -0.00149634274297      -1.08087463123154
H        -0.40923506680274       1.35668599696403       0.24907461913790
H        -0.10685491618612       0.70350815169162       1.87783408221484
H         0.42788537412895      -2.18227534812746       1.36527922362453
H         0.85215663162256      -2.41915663976487      -0.36030672945677
H        -2.41625482594165       0.10506835704795       0.26342171984952
H        -1.92033444124742      -0.66637387034796       1.78797342499403
H        -1.73846971729801      -2.56389618764371       0.40403945493729
H        -1.36856265979142      -1.60363437594938      -1.04133958692243
H         2.30087538659737       0.79377909555051       1.17223220226272
H         1.76660301897477      -0.59187170354381       2.16073335303199
H         2.80246126903882      -0.86287997023713       0.72825558488492
H         0.21580206897722      -0.08932236744066      -1.69573328680086
H         1.45829129300162       1.02939495940375      -1.08161756030358
H         1.89039061194754      -0.65448380769551      -1.46645006118769
C         0.01183584208855      -0.84808160724717       4.37285422711274
O        -0.05093272711036      -1.17202800828034       3.17488412711903
O        -0.59042868578869      -1.18243148801027       5.36343424714068
C         1.17094831698978       0.29178616319368       4.58142000021927
F         0.99806094576787       1.29703152849121       3.66801543768442
F         2.40254922316004      -0.21060517974465       4.31088972464642
F         1.23646221276384       0.87038269466919       5.77876328459753
