31
C9H19NO2 optimized with ForceField in AMS.
N         0.83435911891321      -0.00084652347979      -0.02229978870110
C         0.08896043970349       1.24021917938541      -0.38416625748450
C         0.06471934368710      -1.21859426457646      -0.41136948776821
C        -1.34657114565802       1.27369582979419       0.16993609719912
C        -1.37132484409549      -1.23598464605855       0.14238046091744
C        -2.12172338813762       0.03090623427872      -0.26077183602563
C         1.16280938249261      -0.02056760218725       1.42668554420440
C         2.11629315263625      -0.00484810432140      -0.77008805684107
H         0.01994485516347       1.33767952714680      -1.49278065779004
H         0.62993005638281       2.14263522294977      -0.01889805796538
H         0.58769236119240      -2.13928990366094      -0.06615899265700
H        -0.00596434293641      -1.28990152775056      -1.52186256845337
H        -1.86523488379734       2.17558857113634      -0.22100702330321
H        -1.34089584980191       1.35655406512258       1.27687460866470
H        -1.36787469882227      -1.34274230712412       1.24699451668157
H        -1.90757343337437      -2.11877479902572      -0.26770813173984
H        -3.12587117854900       0.03550745471863       0.21474353940519
H        -2.26327204071797       0.04451086319756      -1.36414371755360
H         0.25739790220617      -0.02063196428528       2.06461307007675
H         1.75106927426875      -0.92815490242781       1.68986150643046
H         1.76657433407839       0.87043776618854       1.71062963217442
H         1.94354567838535       0.00885846734926      -1.86987207466278
H         2.73276467503949       0.88704819408799      -0.51584654899879
H         2.71577455401909      -0.91347961741351      -0.53546697046368
C        -2.58071297600540      -1.53171182467188       4.62682213155728
C        -1.24277898475551      -2.17059960251150       4.42598665514578
O        -1.10951127691838      -3.05917096743118       3.60024149237078
O        -0.28172114631180      -1.80736617046850       5.08539749783768
H        -2.90936874460103      -1.05044856679293       3.68156207301207
H        -3.32281935231827      -2.30371899997780       4.92109875014973
H        -2.53191609426778      -0.76048898099064       5.42556139268085
