33
C9H15F3N2O3S optimized with DFTB in AMS.
N        -1.09594761876524      -0.72163622594827       0.38656616174289
N         0.90917660426311      -0.07376324854013       0.82959399069664
C        -2.49910453606654      -1.08909735654779       0.58564282264492
C        -3.41581337192218      -0.48267384944598      -0.47688489749722
C        -0.27616189793800      -0.34833006622729       1.36596856970498
C        -0.41968408309384      -0.67978886641628      -0.80324228257196
C         2.06823792585053       0.43338482622427       1.56252563284407
C         0.84432597434117      -0.26650547945379      -0.52384794530808
C        -3.35286497894593       1.04196427635071      -0.50610092754252
C         2.37961761004106       1.86563959481232       1.14613598505338
H        -2.77804663958855      -0.72737222544820       1.57864739829785
H        -2.56630543151464      -2.18207435075334       0.56647322556779
H        -3.16624028878621      -0.89019962848203      -1.46190585333178
H        -4.43307275295628      -0.80391540167343      -0.23356401298817
H        -0.52976974583232      -0.27297239392702       2.40924033609487
H        -0.87769979536149      -0.94394826903187      -1.73965855489760
H         1.81949995414416       0.39515553424378       2.62496566374663
H         2.91419453143445      -0.23010638416612       1.35763728999053
H         1.68914597548171      -0.10187795414003      -1.16920278717164
H        -2.35935965276430       1.37914274263682      -0.79889394833554
H        -3.57975978277741       1.45098970727417       0.47768157035423
H        -4.07747418918754       1.42450196880768      -1.22426628274139
H         2.57112905376471       1.92770894909537       0.07548356563092
H         3.26334692157241       2.20267345086289       1.68588391452243
H         1.54340842470602       2.51411801503013       1.39961014818814
S        -1.35571574644834       2.32111662246641       2.92018908421453
O        -2.26879053826882       1.27517257012097       2.46891412607148
O         0.00543123567886       1.83766215070115       3.12692055400614
O        -1.86715693377203       3.20502280862314       3.92807356310925
C        -1.16817224228328       3.36360233063761       1.39315685107862
F        -2.32279557748020       3.86285244608016       0.97323670238926
F        -0.67916533016941       2.59167424641863       0.40033347576165
F        -0.31232661435562       4.36266133311533       1.56863080007471
