40
C12H25NO2 optimized with ADF in AMS.
N        -0.89627308610526      -0.24625618456001      -0.20211246768816
C        -1.18893604249262      -0.55378666447073      -1.65888883601245
C        -1.95882517828503      -1.07335317230378       0.50891248460930
C         0.48019942242495      -0.71747620820047       0.21205810810775
C        -2.70760923642342      -0.48460933826272      -1.75862161531923
C        -3.20919279582429      -0.97163820774735      -0.37307047705906
C        -1.07690267775160       1.20171255642759       0.09926634986116
C         1.61397547544394      -0.11720556799288      -0.62153230615929
C         2.72233626839078       0.46995913292171       0.25039808185696
C         3.87767694252388       1.05899598061583      -0.55289571811458
C         4.94249997332182       1.69342896305478       0.33797740569116
H        -0.86262776009359      -1.61498324052932      -1.80432444055509
H        -0.64683445304208       0.15509420341289      -2.29810153997336
H        -2.07380726634459      -0.68281940584931       1.53017741265609
H        -1.54082852252827      -2.10410751037040       0.53043226664216
H         0.42735950170447      -1.82547625059371       0.16038248373531
H         0.57636788515361      -0.43307082680010       1.27357983920983
H        -3.04799837585722      -1.14089908821277      -2.57230093110794
H        -3.06717398110996       0.53401834229849      -1.97843394736684
H        -3.96104072277569      -0.28467006372449       0.04468848287754
H        -3.66934050627300      -1.96696652874503      -0.45048083853001
H        -0.33585736740260       1.78627865288196      -0.45970335025155
H        -2.08847094783370       1.50781272241194      -0.19314386340674
H        -0.93742094379063       1.35485299531893       1.17694409664859
H         2.02217093138318      -0.89563543472353      -1.28785988631577
H         1.24482436078996       0.68080708324440      -1.28825584091956
H         3.10615269930541      -0.31083898954044       0.93267551683088
H         2.28966049000404       1.25994782690053       0.89440442091504
H         3.48180074265606       1.81563197590872      -1.25588267558758
H         4.33091852250787       0.26576568379732      -1.17417009239346
H         4.51157363108452       2.50493094686694       0.94757138630158
H         5.76584405904132       2.11761345754943      -0.25508024169712
H         5.36956093563728       0.94846946917274       1.02893949205158
C        -0.42945694782333      -5.63287967121892      -0.92955657423980
C        -0.54818348800216      -4.10958371807953      -0.80521666942631
O        -0.34509852379337      -3.62661250279769       0.35739866849776
O        -0.84571295704695      -3.46121837716832      -1.85264170687865
H        -0.50983717977861      -5.95543287837984      -1.97570741132732
H         0.52752289681719      -5.96892015029682      -0.50267597588011
H        -1.22776454791231      -6.10941800741605      -0.33912976188270
