44
C12H24F3NO3S optimized with ADF in AMS.
N         0.42132664747257       0.35629695946454      -0.30607846346189
C         0.10641746664495       1.15537843483985       0.95806415032648
C        -0.88135305405079      -0.07099020071090      -0.94731206054354
C         1.29137427914053      -0.83384553802415       0.06152372150222
C         1.13847827004953       1.26247148398370      -1.29436653898238
C        -0.80107249192821       0.40929310405333       1.92088144349915
C        -1.76618026027756      -0.87364389228688      -0.00834907025056
C        -2.08729562707339      -0.07290441176444       1.25419993387989
C         1.65771811561360      -1.75217928282499      -1.09055209813950
C         2.55113349217735       1.66574478971690      -0.90769751059149
C         2.58218569320261      -2.86034805654065      -0.57787279493644
C         3.07542724476355       2.72549398412719      -1.87671693351078
H         1.06945881443956       1.39504051861228       1.43947432976475
H        -0.37785784253751       2.07751801016479       0.59562361939672
H        -1.38583972783642       0.86444067079456      -1.24111240851990
H        -0.62976708400270      -0.62516880288545      -1.86179968772834
H         2.17825950102089      -0.41425453945447       0.54924146799042
H         0.76361113366828      -1.38527013236671       0.84692048968791
H         1.13007701594281       0.73707217292326      -2.26247914805922
H         0.49380449081462       2.15131712127447      -1.39246796282411
H        -0.24071949557116      -0.41417900569828       2.39199957970290
H        -1.02181484556555       1.11169417141792       2.74180218334642
H        -2.68495646481366      -1.13233514131445      -0.56121831913477
H        -1.28075192206501      -1.82890581132341       0.25289040604985
H        -2.67885785965500      -0.68350674207712       1.95461028586970
H        -2.71439705213851       0.79502997149345       0.97587010493084
H         0.75599967581711      -2.21005931419122      -1.53240932232333
H         2.16924533117918      -1.19579443144052      -1.89433196437308
H         2.58814201154380       2.04392586129012       0.12536610009485
H         3.21776752798924       0.79010085295624      -0.93312600196271
H         2.83493836944634      -3.55790818272872      -1.38928910832101
H         2.10148911645006      -3.43214494220083       0.23064134461932
H         3.51390978809057      -2.44039458439746      -0.17370770184499
H         4.10351768322346       3.00397672639231      -1.60370871586223
H         2.46137310533908       3.63924057917324      -1.84736492465428
H         3.09037132801030       2.35767523071069      -2.91561778698711
S         3.06627140390017       0.31555137040126       3.26655643198051
O         2.04483191316155      -0.73464259063398       3.06261222396146
O         3.45038595061790       0.60082102005986       4.64611872963388
O         2.88898090596789       1.49484254455419       2.38001122685576
C         4.60820791635565      -0.48809275802236       2.53037493422451
F         4.49154991021561      -0.61589865505445       1.15806378381215
F         4.81224540007287      -1.73674452654255       3.02284508935937
F         5.72682156718384       0.24230468897988       2.75966768672263
