35
C9H20BF4N optimized with ADF in AMS.
N         0.31074711891740       0.13343066272021       0.13162540583702
C        -0.73385835888314       0.96119456550001      -0.59028874296463
C         0.17860293268883      -1.32032736798130      -0.31073610457338
C         1.68072354386169       0.66201384387350      -0.29368317779910
C        -2.15052465372011       0.43069194399895      -0.42350511450190
C        -1.21588711524058      -1.87609037815951      -0.11285374249005
C        -2.25302018166488      -1.03380661308742      -0.85380253479475
C         0.14948340695974       0.26247649035723       1.60912294489293
C         2.86314362144704       0.10913146745039       0.48224021457308
C         4.15594028968183       0.48997669313450      -0.24217448393620
H        -0.43824418663739       0.93871918891838      -1.65130809123754
H        -0.63138445548983       1.99310922965338      -0.21949978108399
H         0.94710829747524      -1.90095288799240       0.21481233763054
H         0.45595542762284      -1.33784096395879      -1.37373747158673
H         1.61700912103102       1.75964465210700      -0.19986016809986
H         1.78063571843867       0.38215582921197      -1.35355563378735
H        -2.80874597571235       1.07142012824552      -1.03517474941580
H        -2.48972451835574       0.55225480984961       0.62031333931179
H        -1.47218015922547      -1.96214899758416       0.95814115522694
H        -1.18024042238777      -2.90232953117332      -0.51422273800070
H        -3.27150320563916      -1.41346868369660      -0.67520258276511
H        -2.06275239566212      -1.10898599992900      -1.94011375780924
H         0.86395047142510      -0.40931914805387       2.09718277545669
H         0.35053712451433       1.30382501093222       1.89512855750442
H        -0.86990096339332      -0.01550650351969       1.89333137580828
H         2.87519251420596       0.50607646587899       1.51172825396200
H         2.81273172990182      -0.99130873482151       0.51287269914244
H         4.17908849770263       0.00301164982361      -1.22813361512690
H         4.24828728840095       1.58048293419824      -0.37258669296301
H         5.02550463475276       0.13987018845779       0.33070318959059
B         2.50052091831796      -2.93378161117395      -1.84903142123395
F         3.45904909182703      -3.67573266175597      -2.53640882578378
F         2.76330332241488      -2.95329419593352      -0.43218991559077
F         1.18067434667392      -3.43004211170663      -2.06641356693033
F         2.52954044075020      -1.55174637098388      -2.28253600666164
