62
C18H23F18N2P optimized with DFTB in AMS.
N         3.24887774951415       0.49349570392956       1.96529448996144
N         1.53895990839550       1.56032342731851       2.71747838767192
C         4.30651085031738       0.03711635320019       1.07284827594864
C         3.85180761449988      -1.20548163409157       0.30387828440575
C         0.41333709465460       2.48252156281780       2.79701302592100
C         2.67291069819034      -0.90900508170658      -0.62761984677878
C        -0.88387982534742       1.78248771098117       2.38635657361011
C         2.34853122353462       1.42838795113558       1.67038053795086
C         3.01223014745040       0.02244558461195       3.22697220852061
C         1.93299062198031       0.69770072995991       3.70243328611544
C         2.22945757410431      -2.16335941376197      -1.38708456872865
C        -0.87157547989162       1.34688455890340       0.91778131220732
C         1.02978467728189      -1.86800433400565      -2.28520665190383
C        -2.18804094074850       0.68023022362020       0.52419922798474
H         5.18321824814532      -0.18907501360640       1.68233120071970
H         4.54671828670965       0.85682355212991       0.39156216648609
H         4.70295497096409      -1.56542617137263      -0.28060132539158
H         3.57438726458532      -1.98814602935226       1.01660156620572
H         0.34806454607286       2.83614211649656       3.82768474194379
H         0.63224604419811       3.33019307368362       2.14395897422157
H         2.95914479289297      -0.12866981040374      -1.34074652997757
H         1.83065757224409      -0.52950690152013      -0.03785433362560
H        -1.70517748846117       2.48464037219158       2.55423005401366
H        -1.04521603813350       0.91284838931448       3.03098756756906
H         2.31097609279236       2.00721893233201       0.76478400867869
H         3.63548801698112      -0.72733428955274       3.68186736559405
H         1.43385744901069       0.65204810451120       4.65428711639833
H         1.96459641590575      -2.94715733957354      -0.66947838470720
H         3.06087574821736      -2.53277551453881      -1.99588808429254
H        -0.69753342849310       2.22040606902355       0.28095071923804
H        -0.04781341860560       0.64305117541969       0.75306882180379
H         1.28067687455393      -1.10029660523891      -3.01813842654550
H         0.18443848475357      -1.51763214161828      -1.69083648123767
H         0.73057370894209      -2.77148172279296      -2.81620298480844
H        -2.36764223945299      -0.20286459991000       1.13862756247224
H        -2.15101426288910       0.37524191171975      -0.52152998308701
H        -3.02073378032585       1.37164268604981       0.65632019714092
P         4.45932470710508       4.49985959471125       3.67522505399736
F         4.64461867422250       4.61231606106738       5.33249639555391
F         3.60470426866252       3.03218956801837       3.87875227512369
F         5.27688069897269       5.93022124488007       3.39908495378104
C         2.80041213099622       5.52269272672479       3.88147957763372
C         6.17904069808965       3.55677471261481       3.70558725006148
C         4.14730624719918       4.24003311058269       1.69780216673159
C         2.61915537667241       6.37606224797830       5.16645296415422
C         6.20743520477447       2.10469489427845       4.25005127779914
C         4.72024447742585       5.18032055141639       0.60591402147495
F         1.70713852102640       4.72033765363237       3.83537578603847
F         2.69890358914305       6.37032792920267       2.84272501004488
F         7.01706707699206       4.26240929019265       4.47880018948868
F         6.73404694936714       3.50375358407552       2.47860632147432
F         2.80477852091636       4.20132048612956       1.47449419383669
F         4.58198892198021       2.99176598165419       1.36836189937879
F         1.56568689836141       7.18662964430840       5.01858802946881
F         3.67857223504472       7.12853729645852       5.42413198197848
F         2.37594085664532       5.59771373860894       6.21959684261927
F         5.60475271275986       1.98646140825222       5.42603194918079
F         5.59647949968868       1.26269194539559       3.39555224054556
F         7.46112695754649       1.67457837113875       4.38484302286143
F         4.44011927774597       4.67096520624638      -0.60409001840574
F         6.03766277897719       5.30060675976977       0.69702680207694
F         4.17954208064075       6.38943440565772       0.66873539530242
