42
C10H12F18NP optimized with DFTB in AMS.
N         0.73831610502777       0.37672908736867       0.21222991658077
C         0.26408752413773      -0.63102773194301       1.19828034092425
C         1.03196545528164       1.65588315164004       0.91790949279353
C        -0.31535336980248       0.61239182220754      -0.80920071802629
C         1.96592975020432      -0.13231418162331      -0.46103203470377
H         1.05153815850341      -0.79928810449273       1.92947521379751
H        -0.62872310180623      -0.25184753582331       1.69188740415840
H         0.03734895603314      -1.55840762301537       0.67574016762712
H         1.44315797511343       2.36591716350849       0.20397588193707
H         0.10874544335892       2.04170406328278       1.34624235244579
H         1.75844217208492       1.46706612886400       1.70318135852467
H         0.04492783625903       1.35504846961744      -1.51852727796608
H        -0.52550922452556      -0.32242832491901      -1.32553095115908
H        -1.21524660427312       0.97531848934280      -0.31606659599550
H         2.32549317205650       0.62187758889372      -1.15684379083652
H         2.72688973824795      -0.32966222966425       0.28897018232936
H         1.72055338250565      -1.04870564508635      -0.99437516279467
P         6.20280991965901       1.79813434559578       2.20442112229822
F         7.13097954214365       2.12252225574832       3.53438771070107
F         5.04748869025767       2.94054872519435       2.64061363261492
F         7.27712173617481       0.62079525228221       1.68657197536909
C         7.21460766993013       3.22419022983038       1.33673599934556
C         5.25210273165179       0.44733806885233       3.35260121605450
C         5.04832099964130       1.28850422454590       0.58042448410245
C         8.70382065205049       2.96644228455949       0.98167155990552
C         3.69492897118314       0.38478599810610       3.46274004894614
C         5.30005889079593       1.53426142011471      -0.93534219183596
F         7.19421053811828       4.29777485981609       2.14105049829113
F         6.59957832590489       3.58526896473880       0.19042724169894
F         5.64029190180694       0.63889196560517       4.62489650515132
F         5.61956044796587      -0.80424105580142       3.02303906986942
F         3.78000953239190       1.77306462159407       0.76987562066510
F         4.92051631646425      -0.05964903745546       0.67193846422579
F         9.27409812737846       4.09638756237409       0.55545111716196
F         8.81514031689103       2.06610112963042       0.00791942299064
F         9.38848531713026       2.53507553185103       2.03377068394316
F         3.33717649031908      -0.26078501880519       4.57098542966965
F         3.08991827339413       1.57193252134487       3.48710812908327
F         3.13447849261011      -0.29916413987726       2.43851766107352
F         4.84521849782009       2.72166259460292      -1.32478221453334
F         4.59554246525824       0.61912425677207      -1.64145482840499
F         6.56698846005153       1.41210793372204      -1.28700858052364
