69
C19H36F6N2O4S2 optimized with ADF in AMS.
N        -0.71425531886062       0.80162287080109      -1.44122800482848
C        -1.06729779457689       0.92359678334879      -2.92513943990612
C        -1.14330875968811       2.06527199757800      -0.72134590613493
C        -1.40901244012029      -0.41320932181441      -0.81725119694055
C         0.79040214607948       0.66870964326904      -1.34807603888811
C        -2.50927330535450       1.32238489343311      -3.17719729722710
C        -2.60543479346735       2.41328970188656      -0.94333207044623
C        -2.89921049614654       2.59295334245913      -2.43085025212170
C        -0.76202305460966      -1.75681353951481      -1.10094036878867
C         1.35447500805723       0.56756486299465       0.05935905390902
C        -1.70124465965890      -2.87953580990541      -0.64731108864553
C         2.82732619194549       0.15636910989604       0.00139549696402
C        -1.21732038021462      -4.24944890501252      -1.11665021208627
C         3.46466879915935       0.06197906412926       1.38488108844603
C        -2.19966608095674      -5.36678791197109      -0.77183667601229
C         4.93382636100680      -0.35145356573901       1.33626316999888
C        -1.74881237710670      -6.72430170709401      -1.30392148985515
C         5.56218830072354      -0.44598129863207       2.72347444491008
H        -0.37266268754727       1.68010425300231      -3.32483376945982
H        -0.85415812361839      -0.05162708383106      -3.38317827155219
H        -0.91449744158313       1.91844756908954       0.34246648834788
H        -0.49603332800075       2.86846638795428      -1.11311239138945
H        -1.46001225748757      -0.21443202810396       0.26434442961398
H        -2.42886088591935      -0.41568697879073      -1.21511949958473
H         1.05003993127573      -0.22203490657316      -1.93786290827949
H         1.20550846612506       1.54632254164281      -1.86828460668308
H        -2.62162015073451       1.43151795362845      -4.26853549517916
H        -3.17619253843315       0.49719781145229      -2.90012380974088
H        -3.25744565681275       1.63176416503070      -0.51804553510464
H        -2.80885562897166       3.33710404887596      -0.37682825805584
H        -3.96672046027992       2.81014953925062      -2.58725805052223
H        -2.32815624116739       3.45849712504210      -2.81611294280671
H        -0.59950234259989      -1.87528587493591      -2.18295536305039
H         0.20996040314625      -1.85686254640957      -0.58928852885301
H         0.79885080678976      -0.17779430434915       0.65119484549169
H         1.26945210106394       1.53301083224559       0.58569431834046
H        -2.70240396796948      -2.70573338893020      -1.07316145029119
H        -1.79956825736101      -2.86775057601796       0.45474141020748
H         3.39140284608557       0.88087568343636      -0.61494530362795
H         2.91146315299245      -0.82110026355290      -0.50867145588655
H        -1.09049391867672      -4.21479988429326      -2.21385399377472
H        -0.22271444556048      -4.47402581416654      -0.68386382922327
H         3.37646557278677       1.03802164356926       1.89803646651803
H         2.90016030095741      -0.66555740321717       1.99796152987051
H        -2.33046392580855      -5.41704332050499       0.32534065668359
H        -3.18390316524715      -5.10965620985531      -1.19787346762763
H         5.01921334638904      -1.32550563382383       0.82106360807175
H         5.49467884625022       0.37590085685539       0.72126921583733
H        -2.47950346830885      -7.51089612268715      -1.06211837569816
H        -0.77625241028455      -7.01993023354435      -0.87623749699454
H        -1.64009100717742      -6.69273282886954      -2.40010728572148
H         5.50959667054828       0.52228235295934       3.24686689338816
H         5.03753560528743      -1.19054771393340       3.34337319681011
H         6.62046931485413      -0.74063765891131       2.66480293563622
N        -4.74855284497388      -2.23563393444502      -4.63480676328545
S        -5.50956374323043      -2.65716509334806      -3.27393829033936
S        -3.16606220881705      -2.06717506939212      -4.72654601880595
C        -5.75789465260423      -0.98951605985840      -2.35668571309352
C        -2.52172216961502      -3.77547159606449      -5.19935050174769
O        -6.86657612157310      -3.03014234079920      -3.63144707050725
O        -4.74750110462953      -3.45322815570743      -2.31685592151282
O        -2.48331278307654      -1.79928057243120      -3.45134478289919
O        -2.83225379170891      -1.22813496541604      -5.87038130377509
F        -6.93704893496073      -0.99732640239608      -1.69887277956144
F        -5.74464364001728       0.07489471549968      -3.19781100698542
F        -4.77354700843850      -0.78103357924357      -1.42269573868250
F        -2.91905493311659      -4.71358696557363      -4.31244401689125
F        -1.15899913678935      -3.74275651161933      -5.20248652352289
F        -2.94377090466193      -4.13206026095099      -6.43035067274716
