71
C21H29F18N2P optimized with ADF in AMS.
N         0.76110289228996       4.19634900570277       0.53107171024215
N         1.69815512636750       3.18513682965229      -1.14377189006721
C        -0.94240807307417       3.82497631933726       2.28837348027539
C         0.36636689179457       4.51489663675540       1.90728137340881
C         2.13660899626092       0.79578863925414      -1.58644458937350
C         2.52604383882942       2.23413502833931      -1.90510161890750
C        -0.88608489187509       2.30237924454009       2.18245664863770
C         0.66694570922228       0.48820538665590      -1.86145365195109
C        -2.21352270652943       1.62202281433075       2.51345617412657
C         0.25546120351771      -0.91501015771113      -1.42275363808523
C         1.58870539112162       3.20218205492414       0.18905151901102
C         0.33562967588670       4.83578450027213      -0.61280835515455
C         0.92806532997264       4.20005465825008      -1.66580125401190
C        -2.15116854476138       0.10451481581307       2.33906406547928
C        -1.22811812872298      -1.19413707895403      -1.65474044879288
C        -3.48286617264875      -0.58817886122755       2.61538173450626
C        -1.65404882083646      -2.58523202433097      -1.19389977066648
H        -1.17861065363392       4.12547615094715       3.32435087928377
H        -1.75847886470164       4.21348540389307       1.65286494157776
H         2.37899017357197       0.57410754997070      -0.53128040617168
H         2.78830550731361       0.13911475658133      -2.18857628370981
H         0.29199855550662       5.61007964543626       1.97387547267189
H         1.20137023289000       4.20445307251936       2.55276470804188
H         3.57748624799721       2.45051652685754      -1.66702949694262
H         2.35945570892837       2.46801753678258      -2.96616369287409
H        -0.09424063403691       1.91395210755246       2.85103203705415
H        -0.60269422557424       2.01370562728582       1.15360153670109
H         0.46006659105339       0.61681187925474      -2.94043520627372
H         0.02901365000559       1.22256589682081      -1.33554711429773
H        -2.50968905180037       1.86541909684290       3.55086034210862
H        -3.00481055290458       2.03350242819299       1.85875052252555
H         0.48738206036152      -1.04211342505396      -0.34832710478752
H         0.86273415695303      -1.66610772757855      -1.96166535826223
H         2.12575945580399       2.56849843246204       0.88096431403984
H        -0.31515988777351       5.70032389126090      -0.58069485283936
H         0.90631229724509       4.41265525686845      -2.72698659304146
H        -1.82498180241201      -0.12263738977248       1.30763259177677
H        -1.37212534252383      -0.30475926523581       3.00871201823273
H        -1.45607737440496      -1.06986089295566      -2.72937016454312
H        -1.82383775025930      -0.42845435584946      -1.12351123939184
H        -3.82264842414336      -0.39742554838237       3.64596102505119
H        -4.26677340599457      -0.22437120013678       1.93155920651793
H        -3.40302866238029      -1.67845589990027       2.48473039399705
H        -2.72479860881656      -2.76092413253884      -1.37909594928013
H        -1.47170976182655      -2.71581105909004      -0.11505266779938
H        -1.08801282445978      -3.36677530621487      -1.72596734925095
P         5.92469647052269       5.78173028582960      -0.08418611123313
F         6.98434309384460       5.47046631884193       1.15874854525572
F         6.45587010452891       4.42817475090884      -0.90311346884872
F         5.28804915235933       7.11869899601484       0.68853932649625
C         4.62627376659843       4.66975732674758       0.94252718173698
C         7.34218274805105       6.93445873645230      -0.83477935989872
C         4.65092037287866       6.02381039645033      -1.63232811979595
C         4.87523301297351       4.42443283046996       2.46303185274758
C         8.54544178931312       6.25947034017305      -1.55596637897376
C         3.63399881997898       7.20447313568134      -1.73054733052964
F         4.49341740050866       3.37796405409394       0.43046903132510
F         3.36268704291242       5.24247924351478       0.90460414575829
F         7.89708600317092       7.65058169546439       0.20335869928588
F         6.85188396348714       7.87141713869607      -1.71995465199740
F         3.84449419392484       4.88498926922606      -1.72925647728560
F         5.35504886400610       6.05811786786026      -2.81065549109216
F         3.75119214764555       3.79182623736595       2.98830028592604
F         5.03568370587877       5.56597348993977       3.15283091676194
F         5.91188511300075       3.59910279470066       2.69129827452522
F         9.46121418080654       7.21360676512384      -1.89362679548910
F         9.16360222802833       5.35945889159707      -0.75755763483745
F         8.16950974226227       5.63931140335646      -2.70073414566164
F         2.90254798753108       7.06055447559203      -2.88705621623201
F         4.23279004364537       8.40580544248864      -1.77439658121025
F         2.73870893734293       7.20870967308665      -0.70949340822491
