29
C7H14F3NO3S optimized with DFTB in AMS.
N         0.82300548096081       0.16422588290422       0.04238291571020
C        -0.26437974246869       1.03638968398116      -0.51099274993150
C         0.13214811623019      -0.81619508836722       0.96408520001683
C        -1.27314153098242       1.13956314187846       0.62266471039155
C        -1.26531409292702      -0.25912421779266       1.23863886243164
C         1.80438066609884       0.99969015936766       0.79017028724740
C         1.54022395900861      -0.54868678249238      -1.04125378421118
H        -0.69644150326835       0.52856091454759      -1.37733086358151
H         0.16056375757709       1.99088617859925      -0.82222338015185
H         0.72915986562447      -0.90779033707788       1.87344197435606
H         0.08852261587803      -1.78379716137974       0.46158367064221
H        -2.25668420993705       1.42174013249044       0.24624613414075
H        -0.94961930735777       1.87577320409608       1.36128450103518
H        -1.45415449311237      -0.21086107507344       2.31144228829818
H        -2.02304443400761      -0.89267063584655       0.77083935827004
H         2.29385530535030       1.67768426424691       0.09307128818044
H         1.27839239798672       1.55964617299139       1.55935827223513
H         2.53547286719133       0.34832310008579       1.26440226766705
H         0.83584185785330      -1.16325302620198      -1.59865599380058
H         1.99858471602118       0.18359244982905      -1.70413869323052
H         2.30922629860419      -1.17616062869571      -0.59434715694793
S         1.14430373781361       0.55206652380472       4.17292665818403
O         0.69352122710649       0.08082727994415       5.45263608799352
O         0.12675844775790       1.21193295985705       3.35337679299421
O         1.96151552059235      -0.38618950475834       3.40603596865673
C         2.33219111712983       1.93372321313287       4.51338064949469
F         3.38191554572742       1.53123193241899       5.21463490979209
F         1.75368222102175       2.93905508087486       5.15511161471627
F         2.77979713132688       2.40311163293524       3.33651584320092
