39
C11H18F2N2O4S2 optimized with ADF in AMS.
N         2.31518541426142      -0.13773401750214      -0.78627871429564
C        -1.51186260103057      -0.27657332329232      -0.76540053633938
C        -0.10051508079387      -0.10806779059021      -0.20474879939948
C        -2.58307680840480      -0.17437703396819       0.31683671416672
C         0.93147398963540      -0.24418563285615      -1.31378338001035
C        -4.00113919809606      -0.34196797682290      -0.22504364668419
C        -5.05934237397413      -0.23625448651309       0.86988366432291
C         2.89445232099913      -1.22990120861386      -0.24322922777913
C         2.98125166612818       1.03322009406633      -0.87523350210296
C         4.18691414369708      -1.17147120604236       0.23787095721438
C         4.27609001582802       1.13852912890123      -0.40630691094194
C         4.89304746781677       0.02356202761219       0.15101741137356
H        -1.58718391152399      -1.25594085828863      -1.27254023304364
H        -1.69380272561382       0.48895360723251      -1.54150633306955
H         0.00174580752326       0.87547751353876       0.28867272178519
H         0.08611403843352      -0.87738527051982       0.56623556602128
H        -2.39527730533690      -0.94320563570675       1.08973962108041
H        -2.49941478262446       0.80524633272334       0.82467957990279
H         0.82934820973192       0.52723903777168      -2.08947562621212
H         0.86517243530977      -1.21728593058997      -1.81728816355006
H        -4.18605316988314       0.42337454478402      -1.00054715263409
H        -4.08167117047206      -1.32096459647313      -0.73181444928722
H        -5.01175427282259       0.74521971427506       1.36927630376938
H        -6.07523051134799      -0.35946281761927       0.46491526762278
H        -4.90715408956316      -1.00979574781167       1.63945058973555
H         2.30253015682344      -2.14102587614321      -0.25610849656884
H         2.45568291737077       1.84825267778536      -1.36571684146480
H         4.63956125960057      -2.07533720074231       0.64459355517122
H         4.80255584355278       2.08630268153451      -0.51443145336207
H         5.92661504080639       0.08005972174989       0.49554086001306
N         2.07344149201749      -1.40002475261662      -4.04497018378692
S         2.15982155681681      -3.00408498938801      -3.93079374914592
S         3.37638057552636      -0.47920283448188      -3.89728937316097
F         2.05998379514069      -3.20852070532190      -2.23286713199951
F         4.09967746109804      -0.57052981065168      -5.36353413208088
O         0.89571939776822      -3.55119563269569      -4.37206911915602
O         3.42785554435753      -3.62077709887129      -4.25744389366380
O         4.39319717409571      -0.93465459034954      -2.95927266593644
O         2.91185311414830       0.90086099519771      -3.80719472510330
