28
C10H16ClN optimized with DFTB in AMS.
N         1.74761923564038       0.02330961262155      -0.49561407001633
C        -0.63568077837177      -0.03023045538699       0.09610835892489
C        -2.06246107199420      -0.00280132773609      -0.45819164766023
C         0.39211390745605       0.03085527416169      -1.03926124937564
C        -3.09810370664968      -0.07162258510300       0.66869315677941
C        -4.52282054977092      -0.04414576457952       0.11789702703618
C         2.34017104012265      -1.23347032218236      -0.26805731008550
C         2.49235013740862       1.16736125122643      -0.48363879283412
C         3.58056577507513      -1.16138821744790       0.51321238862591
C         3.73810616126365       1.19267345294219       0.04599261914719
C         4.27101311668152      -0.00924159250350       0.60898384285876
H        -0.48237507680849      -0.94574188297034       0.67588708950665
H        -0.47846538320849       0.82086471329681       0.76619613450411
H        -2.20468973747807      -0.85011908887276      -1.13766479486207
H        -2.21111481641571       0.91614364434606      -1.03573089023446
H         0.28240119247675      -0.83061332097561      -1.70641352663938
H         0.25260338182011       0.94507577732363      -1.62315623724660
H        -2.95342870067398       0.77546804392869       1.34767429848425
H        -2.94787828327921      -0.99093656766462       1.24461185051826
H        -4.69836838188229       0.87498506195667      -0.44273254406877
H        -5.24099402013162      -0.09433197653869       0.93644617539658
H        -4.69240896240470      -0.89294354495507      -0.54588936867914
H         1.61547129060705      -1.95570533376881       0.10803997198635
H         2.00002521012409       2.05604200575065      -0.86283204783615
H         3.94858175196976      -2.09223469391274       0.92606496894815
H         4.30343980660251       2.11343598883220       0.08056868588922
H         5.21271259072572       0.03361767282790       1.14411866675136
Cl        2.75028403429517      -2.00650552161647      -1.98303316951888
