47
C13H26F3NO3S optimized with DFTB in AMS.
N         1.08776023483862      -0.32273551093408       0.11005942316032
C         2.08764754949392      -0.00055353263112      -0.97809746872012
C         1.83427656832378      -1.15858117893657       1.12623287484618
C         0.60828076851637       0.92825359980942       0.78130902701180
C        -0.04779660393592      -1.12293557615182      -0.46876932374016
C         3.31216850898452      -0.86610927552319      -0.69856254992617
C         3.30805404217802      -0.97927923877333       0.82158944558215
C        -0.18390976149130       1.86399950677860      -0.12906622961682
C        -1.13871202931174      -1.46716096620981       0.54301641248855
C        -0.47682237561935       3.17419886966487       0.61306365955056
C        -2.07464839875651      -2.53080243064904      -0.04363009293227
C        -1.29266727467299       4.12819045990769      -0.25627160360427
C        -3.13140163374850      -2.93822849488350       0.98050518989647
H         2.34614679854795       1.05730835690844      -0.90410827560351
H         1.63878586868525      -0.18872026919884      -1.95327038440304
H         1.55090737147426      -2.19762275098228       0.97389300297908
H         1.55374079583840      -0.86076411490925       2.13406537607605
H        -0.00546395789625       0.62366766785213       1.63134274585655
H         1.49823067800808       1.43485781990470       1.16441113595802
H        -0.46386555283530      -0.55258705362617      -1.30335730727963
H         0.39966658982013      -2.03844243749991      -0.86425909391415
H         3.19680510774837      -1.85176168770340      -1.15605948680556
H         4.21590461307790      -0.39722745081531      -1.08905916523051
H         3.70379591569861      -0.06888667218547       1.27891599215379
H         3.86834955145108      -1.83909817688820       1.18967472891227
H         0.37877778693404       2.08078642700241      -1.04156577165674
H        -1.12971514121865       1.39863191483240      -0.41839902037724
H        -0.69345435409393      -1.85656126597431       1.46083459455569
H        -1.71783087745075      -0.57413456128156       0.79409697973599
H         0.46758141220058       3.65121423672831       0.89482161033338
H        -1.02895288889349       2.95309958442982       1.53197247588572
H        -2.55788698845558      -2.14073448579246      -0.94659706664418
H        -1.48733347304424      -3.40968892255818      -0.32659468355640
H        -2.24648295621579       3.67550657234625      -0.52938226377871
H        -0.74929291652521       4.37372314317119      -1.16954848277387
H        -1.48891014075562       5.04996631346273       0.29062495847016
H        -3.72906067337625      -2.07615051159820       1.27991235243059
H        -2.65427608697505      -3.35799973154507       1.86584002854241
H        -3.79289850864630      -3.68997062114255       0.55042338999401
S         1.20143413750975      -3.47559292056602       3.40665758169623
O         2.51730696970904      -3.22169284328797       2.84009059245263
O         0.28694882118923      -2.34315800608463       3.27904315509399
O         1.17957606722591      -4.15058870078585       4.67378688038491
C         0.47024218943675      -4.68409066580346       2.19116522543585
F         1.11968500592395      -5.83697745760095       2.14404180016246
F         0.52747340333382      -4.13885835782633       0.95256397970223
F        -0.81239939442962      -4.93269841995011       2.44082584831532
