36
C10H17F3N2O3S optimized with ForceField in AMS.
N         1.00954953551847       0.34897942353835       0.46786719572745
N        -1.01078412903847       0.34517608884461      -0.46064028572490
C         2.25679762546419      -0.12021630258556       1.06811879137511
C        -2.25779396093971      -0.12881819840127      -1.05766513365008
C         0.00187217565190      -0.41339515453947       0.00134858056191
C         3.43985603516648       0.09016091878279       0.11690776725018
C        -3.43928633299306       0.07477962409646      -0.10277828959489
C         0.62256963257187       1.62932174206723       0.29510205304242
C        -0.63186921976617       1.62697935237039      -0.28083898342658
C         3.30280329398317      -0.74639776366923      -1.15401153617284
C        -3.29024356010262      -0.75261186421921       1.17328192388423
H         2.17524181774497      -1.19969200781948       1.32464320661859
H         2.43907471993538       0.43351839956395       2.01439424555756
H        -2.17220789628471      -1.20751364998900      -1.31588368493233
H        -2.44546611316848       0.42551983699718      -2.00256413485034
H         0.00508055913921      -1.49661462647506      -0.00109558195573
H         3.52427019618651       1.16510736757689      -0.15265404476225
H         4.37449353965645      -0.20692290191711       0.63976568656052
H        -3.53293636721395       1.15040316135789       0.16106765129982
H        -4.37298420382544      -0.23362066544880      -0.62075478542770
H         1.20507070405460       2.49862711626470       0.57163493634030
H        -1.22060340265515       2.49412911610565      -0.55086917453665
H         2.43737414882040      -0.39822333998228      -1.75668334432458
H         3.16302718106557      -1.81744687737749      -0.89601087491002
H         4.22227519393171      -0.64606339493273      -1.76787680770001
H        -2.42814186317880      -0.38977705980065       1.77199204012113
H        -3.13830530794451      -1.82472077034254       0.92476444208392
H        -4.20974809747742      -0.65772514189323       1.78805587178070
S         2.94019253508353      -6.35264694132480      -2.80825404862045
O         2.45385186993014      -7.71781931713138      -2.29961374608490
O         2.83110669158998      -6.48930737322663      -4.33417876280719
O         4.45504692361540      -6.40663531194917      -2.56061061258751
C         2.09172028220325      -4.91468476561361      -2.09954991913781
F         2.30480386441242      -4.87877742919233      -0.73493955653610
F         0.73663123148778      -5.00809178126466      -2.35130972948132
F         2.58709274177511      -3.76049673577035      -2.67398674227965
