37
C9H20F6NP optimized with ADF in AMS.
N        -0.15553568844127      -0.19531835906426       0.12961420450344
C        -0.52275751964848       0.66021423197296      -1.06542073433483
C        -1.19239161100438      -1.30997944147711       0.26591030412608
C        -1.93298623627479       1.22137652806085      -0.98799137521907
C        -2.61867354021250      -0.79364111892482       0.32912248600567
C        -0.11204146096207       0.62041482728275       1.41519571296214
C         1.20203473691114      -0.81469337083547      -0.16263748503018
C        -2.96012844617206       0.09608856621160      -0.86154189353180
C         0.89417432341504       1.75257777917559       1.42130883091844
C         1.77827439435183      -1.67851269126876       0.93930209811705
H        -0.42806278589003      -0.00114101755177      -1.94295047825210
H         0.23701203824552       1.44988518255675      -1.14864090045539
H        -0.95043579703787      -1.87415023695574       1.17511646724118
H        -1.04522329039791      -1.94411022388359      -0.62503502255573
H        -2.10045636199716       1.81216715805941      -1.90480268806941
H        -2.02377401747425       1.92307069431194      -0.14162282936878
H        -2.78743221229930      -0.28062983830391       1.28875613800918
H        -3.26528993612736      -1.68513797036871       0.36601517943944
H        -1.12623542158978       0.99941695444798       1.57518407443615
H         0.06797003187738      -0.10167245606336       2.22171013112757
H         1.05883455616072      -1.40123604354653      -1.08396113673482
H         1.87247087365155       0.02417869048589      -0.40233706218719
H        -3.97305991449889       0.51476856871082      -0.75077818480373
H        -2.95592837551551      -0.50188112141387      -1.79252729927172
H         0.81831562909147       2.23535506538344       2.40810205456040
H         1.93320722537933       1.41049542313101       1.31003694656990
H         0.68796917457207       2.52570817830941       0.66653249646688
H         2.73820864502915      -2.07550840505094       0.57474890074872
H         1.97319637608435      -1.11772800317669       1.86255386510829
H         1.13317179468765      -2.52803421754847       1.19639300463433
P        -1.64517875225003      -1.96767363827800       4.12757911199545
F        -1.25643715930668      -3.44370055280868       4.71544336011204
F        -2.37077021682008      -2.67665084463726       2.80187035135201
F        -3.06911431736428      -1.95440776839669       4.92865068130104
F        -1.99666374960734      -0.46353785341142       3.46493130642256
F        -0.87388058015772      -1.22126918871367       5.36817068729866
F        -0.18912973280743      -1.95238710552067       3.24936763005810
