44
C12H26BF4N optimized with ForceField in AMS.
N        -1.63130862326435      -0.29548670461191      -0.18701148806821
C        -1.91361803805718       1.11685662433171       0.21296722389367
C        -2.64106297643075      -1.21595687921379       0.42640252776715
C        -0.29281495461579      -0.71747608901503       0.34519427440549
C        -3.35692701043161       1.56219610063277      -0.07996025138988
C        -4.10619727479236      -0.81594344290523       0.16828757927215
C        -4.36025216616372       0.62799725925081       0.58699800069235
C        -1.64465597216292      -0.44179396259339      -1.66820297239489
C         0.93115696699632       0.05033336938434      -0.21515290934843
C         2.22750911177106      -0.46138776904581       0.42898756151397
C         3.45551879055657       0.26888201863397      -0.12939072204482
C         4.74707039441184      -0.27897114992469       0.49084755855592
C         5.97777123136961       0.42382519994756      -0.07499873806035
H        -1.24086408173395       1.82323300921853      -0.31856820037336
H        -1.73406118843065       1.25057667526969       1.30350686761577
H        -2.50646036951465      -1.25393478852864       1.53284601208442
H        -2.49495561130821      -2.25590438013808       0.05521452960272
H        -0.27741556830926      -0.61311062423010       1.45482689793095
H        -0.13047513972347      -1.80088667190794       0.13621524997919
H        -3.50525873014071       2.59001189106999       0.31552920701962
H        -3.53979124255359       1.60226575185934      -1.17443463473794
H        -4.38128771800498      -0.96172799060125      -0.89639691862276
H        -4.76937935375317      -1.48188289540957       0.76148486295511
H        -4.27626207777647       0.71702089326542       1.69224531998594
H        -5.39142634476112       0.92204286114767       0.29450776201418
H        -1.01287353481016       0.32874484577303      -2.15924174570517
H        -1.28061051350681      -1.44829931526172      -1.97323125150832
H        -2.65709625570716      -0.31453698776882      -2.09714056687366
H         1.01106660969540      -0.09973677096235      -1.31154283979017
H         0.84342954233295       1.13588361576267      -0.00677744074196
H         2.17974120789505      -0.30819683451520       1.52999610803822
H         2.32864861209713      -1.55136985530657       0.22997917587433
H         3.37095445525795       1.35554129971120       0.09349694065030
H         3.49358005394547       0.13604562460867      -1.23327731735139
H         4.83044915527884      -1.36803454786310       0.28231973976804
H         4.72436553675394      -0.13343300384109       1.59291843054868
H         6.04046100925862       0.26932903166147      -1.17356902691930
H         5.93561220166272       1.51273035499496       0.14135246132348
H         6.89299023845455       0.00395890338695       0.39403749240543
B         0.66890006059494       2.63947906932656       3.65210626539719
F         0.09507368939748       3.89341020812646       3.31243120370821
F         0.51073414822922       1.73888064572775       2.56921051410285
F         0.01840076234596       2.11568040531450       4.80069842442113
F         2.05213621074746       2.80838035053825       3.92506344570416
