49
C13H28F6NP optimized with ForceField in AMS.
N        -1.53713324712045       0.10152469404047      -0.08569571664708
C        -2.54416636017518       0.50244737050831      -1.12256631043868
C        -1.78028207322697      -1.32677701398408       0.30153152934364
C        -0.18999846072609       0.19799605406546      -0.74552421203294
C        -1.61772090911306       0.97411058845220       1.13801628528466
C        -4.00386064461098       0.28031412381560      -0.69859608084700
C        -3.22933724052314      -1.62011284470936       0.74036206689648
C        -4.22946389076159      -1.17927604452076      -0.32335530216573
C         1.02948694910211      -0.12555813985261       0.15270859043639
C        -1.27061627306002       2.45912902199094       0.92450856339219
C         2.33325092730326       0.03893063655962      -0.63990117581988
C         3.55670947961795      -0.30198544548272       0.21877086355422
C         4.85409347258631      -0.10455899784309      -0.57463613019541
C         6.07744286387679      -0.46499330359380       0.26263706533716
H        -2.38754191363087      -0.08789025659206      -2.05606891251518
H        -2.41807575797158       1.56272340054713      -1.42451747068902
H        -1.12092871713341      -1.62783658585658       1.14397579079219
H        -1.54395198045956      -2.00685175095844      -0.54946804220516
H        -0.04576912441112       1.21171441722590      -1.18220823500105
H        -0.14751537348453      -0.49524539290854      -1.61810151561763
H        -2.63005838773070       0.94865871260902       1.58502040861589
H        -0.95708572852427       0.58147536197002       1.94131760178148
H        -4.67212952934583       0.53714889876174      -1.54810112016618
H        -4.28067621511148       0.94797071580633       0.14135156283796
H        -3.45750622588317      -1.12616986082738       1.70763504142942
H        -3.34361844543487      -2.71368365817858       0.90252293130481
H        -5.26407419786385      -1.30920501054007       0.05908464473421
H        -4.11468015229260      -1.81778674117505      -1.22728743055555
H         1.07022200911798       0.55866655955704       1.02385599924479
H         0.97195478665734      -1.17118768667301       0.51832272663751
H        -0.22810887603870       2.59605919503284       0.57598703739833
H        -1.97527918936278       2.94749731330494       0.22404587694480
H        -1.35823655414504       2.99059061135102       1.89564072903429
H         2.41539778791246       1.09047372115664      -0.99378104780543
H         2.31208952629806      -0.63142870029440      -1.52729175557235
H         3.48605153208567      -1.36049142268662       0.55369786085451
H         3.57203614235168       0.35425840658807       1.11702025932703
H         4.84087569942492      -0.74598505142455      -1.48264186947841
H         4.93952903645418       0.95688811261677      -0.89436140176369
H         6.03547317582855      -1.53211464559705       0.56835977619138
H         6.99713873508731      -0.30436692202951      -0.33888422019722
H         6.12907807911660       0.17614308094380       1.16828590807513
P        -7.60131349888836       0.58014059468494       2.22814504688776
F        -6.61573606936959      -0.82531145072068       2.30114793931908
F        -8.61385456566921      -0.19797991883533       1.07832056539958
F        -8.56461976776034      -0.02879681614745       3.51418988920102
F        -8.59561305821600       1.97931236630508       2.30706188635375
F        -6.46064500664185       1.31998095470843       3.27906870279284
F        -6.77362425333400       1.25161531532941       0.88152346641110
