40
C12H26ClN optimized with ADF in AMS.
N        -0.67763997023737       0.29235956775152      -0.19592177162427
C        -1.22348538807914      -0.51687596291889      -1.36735504075438
C        -1.84839145290576       0.72712900132280       0.68130647686807
C         0.30283680893238      -0.49434155499720       0.63103658819492
C        -0.04325431135870       1.53419312533653      -0.80454796125399
C        -2.06948080923871      -1.69788725301453      -0.92837151477536
C        -2.72051261994108      -0.43457128068958       1.12755943439743
C        -3.24409358073942      -1.21794953023232      -0.07515112824873
C         1.57256656086646      -0.91499098317191      -0.08505583451695
C         0.60697475454240       2.48334939428503       0.18389916375161
C         2.45387701973900      -1.74238571355168       0.84991757297862
C         1.12829084549413       3.70656012239947      -0.57205967725888
C         3.74705585886910      -2.18594158306076       0.17414851980834
H        -0.35775351887292      -0.81475542243880      -1.97424403896685
H        -1.84764505511406       0.21613558817024      -1.92742565704550
H        -2.43140977576646       1.42111244553279       0.03422372268829
H        -1.41305847450927       1.25828350382012       1.53845597681903
H        -0.22996463437742      -1.37932747800406       1.00077040059119
H         0.54273117575176       0.13200691918501       1.50341528091876
H        -0.88269060849442       2.02320004139739      -1.34819960618964
H         0.68823715413126       1.17251095419673      -1.54328517046148
H        -1.47442660140149      -2.45620233087979      -0.38590861650174
H        -2.43272788269626      -2.18752593635837      -1.84781657132380
H        -3.55717498844695       0.00621056943547       1.69597616828818
H        -2.18884404029517      -1.10423353222574       1.82793295013239
H        -3.87120375141337      -0.54589277155531      -0.68824249568873
H        -3.86188405226537      -2.06885336421864       0.25464734420178
H         2.13696629724366      -0.03272263001568      -0.42861512722914
H         1.33411363794102      -1.51608514858213      -0.97790191417559
H        -0.13038352186233       2.81816844310167       0.93009692156015
H         1.43779079448254       2.00432049336553       0.73059348453965
H         1.88735839126792      -2.62576721194594       1.19442150149250
H         2.68565753650092      -1.14832806478060       1.75210915283868
H         1.58961485262759       4.42873383595289       0.11705281403831
H         1.88483217285156       3.41956588644679      -1.31920076498643
H         0.30357876558942       4.20821304305480      -1.10044550575760
H         4.33581433266029      -1.31557590674494      -0.15536095214253
H         3.53369784479497      -2.80195231802371      -0.71377114513392
H         4.37336122832218      -2.78015317306151       0.85593055258800
Cl       -3.10206316809288       2.14960677531731      -2.04195592546039
