46
C12H14F18NP optimized with DFTB in AMS.
N         0.96382505505603       0.89634556338816      -0.11542101759545
C        -0.39170536053055       1.47982184933239       0.12271809651916
C         0.70418976028265      -0.56440953080169      -0.29620028910645
C        -1.11274600607130       0.45048826590171       0.98661436300449
C        -0.43195582336654      -0.89316031093476       0.67292086878542
C         1.83336432913512       1.11477529502650       1.07522833438286
C         1.58890797066639       1.49439263994999      -1.32459793021279
H        -0.87929209442288       1.59396314006127      -0.84813418702043
H        -0.28475876919141       2.45755938328068       0.59189863957539
H         1.62158301419028      -1.12051135760643      -0.10182382805597
H         0.39677053419547      -0.72559179363307      -1.33187214382912
H        -2.17589705423098       0.42918000919645       0.74335474856859
H        -1.01136028966836       0.69570009251808       2.04558227820908
H        -0.04602343023709      -1.35358996829346       1.58424986140562
H        -1.12715554637266      -1.59465132929372       0.20858557754596
H         1.84476927446134       2.17478428169784       1.30898306527970
H         1.43675969698786       0.55279867947003       1.91715098614743
H         2.84301130303161       0.78273006295794       0.84398413210641
H         0.99435517343146       1.23336139496067      -2.19817144060998
H         1.61963939506981       2.57363573838891      -1.20244760891715
H         2.60102514567127       1.10953894529549      -1.42551522916236
P         3.75985437384576       4.48177814048275       0.85922911062441
F         3.42822555915349       3.07789479335406      -0.08057825527126
F         2.81548432473470       3.84859956927617       2.11239504418316
F         4.64683530490085       5.14514080884632      -0.40337705812102
C         5.28536365248253       3.38119815440031       1.43675583141764
C         2.07867995174767       5.07492547800098      -0.06130025286782
C         4.11642293585966       6.04213203169222       2.02602217420911
C         6.35012822224247       2.97907409607949       0.37637235497013
C         1.36666808125522       6.45570272573904      -0.02991529135748
C         5.24961646888025       7.02844298127891       1.63909678514611
F         4.77783946289859       2.21296607385523       1.89871918265814
F         5.97421319042505       3.93492867447980       2.44691325317173
F         1.10236392416534       4.19288535651612       0.31649931985099
F         2.28454187568395       4.83357040347342      -1.37201698035577
F         4.36121381212709       5.61741804320765       3.27593795531187
F         2.97924421792978       6.76434437188423       2.08733425433736
F         7.21521027292768       2.11903424444147       0.92364631125024
F         7.03752839182116       4.02902196445437      -0.05221286639271
F         5.80543986803405       2.37205291906887      -0.67832686756091
F         0.45774505609239       6.48520319351277      -1.01388319426581
F         0.71108195653302       6.64731724960130       1.10968692500853
F         2.20713908069261       7.46168708879090      -0.23016257894390
F         6.38548373754064       6.37695708693837       1.40334103891513
F         5.47112237374237       7.90332858367454       2.61873590822023
F         4.92120716289604       7.70857391298769       0.54467725824149
