25
C7H16ClN optimized with ADF in AMS.
N         0.71016134273211      -0.11648812586790       0.05966697642318
C         0.12307681892417       1.18565243886227      -0.42173091196276
C        -0.18690357695089      -1.28071478898350      -0.35318918015022
C        -1.30915930309279       1.39733420882351       0.04489917820195
C        -1.61749148238436      -1.09341317210196       0.11613418625728
C        -2.20659861907399       0.23111497813744      -0.37256559359899
C         0.90520233370421      -0.11092208596015       1.55148627795227
C         2.05664664789391      -0.32653015193527      -0.57393409803612
H         0.16984808610160       1.14791488209971      -1.52259262937588
H         0.79678008871996       1.98378877652629      -0.07248556056411
H         0.31866942230969      -2.18401155628427       0.06237541431026
H        -0.13773586183819      -1.30511097258501      -1.45467622501099
H        -1.66174833788672       2.34781875212551      -0.38838474221755
H        -1.33573541351216       1.52890838713353       1.13948404282574
H        -1.66951159870684      -1.16454456162525       1.21578482654949
H        -2.19853461249383      -1.94901558449532      -0.26534460040928
H        -3.22654923411415       0.37797018536101       0.01696851699315
H        -2.28571144992688       0.20978752676218      -1.47546949359591
H        -0.05994885414698       0.03467510606916       2.04522898187234
H         1.35160209339194      -1.09934850664690       1.80738623580489
H         1.58128576681816       0.71977741938887       1.79597034295104
H         1.92399606415803      -0.33774592830188      -1.66400787076591
H         2.70844027896361       0.50718446642382      -0.27805568563263
H         2.43450742949894      -1.30217584176105      -0.19281309645169
Cl        2.07394670761144      -3.15352126066483       1.14598044273045
