53
C15H30F3NO3S optimized with ForceField in AMS.
N        -0.07055695633126       1.48066259578307      -0.00986607306830
C         0.51968165944053       2.41764849421927       0.99613340816115
C        -0.73309661884335       2.36445617906304      -1.01751278691495
C         1.01377190440866       0.69104934092610      -0.67943359928496
C        -1.08590497736507       0.60713355831752       0.66362401336280
C        -0.00724382489556       3.81152235915451       0.71260266079959
C        -0.28208350130292       3.78977181081159      -0.76399774934401
C         1.76126975823658      -0.29230582588984       0.25263896513837
C        -1.77935328892940      -0.41726462825536      -0.26676992567658
C         2.97758498861953      -0.89797397265555      -0.45819147085181
C        -2.87794660944016      -1.17405805977852       0.49163591382829
C         3.69890123646176      -1.90434346105712       0.44554650759868
C        -3.59319739666615      -2.17931485616040      -0.41803635952307
C         4.91871956957252      -2.49321577075210      -0.25375027923429
C        -4.66311365160037      -2.95007617707477       0.35055165058576
H         1.63023550529051       2.47172348729340       0.92245924901117
H         0.29176990868070       2.13473551643881       2.04946722110563
H        -1.84290211750403       2.35669609244053      -0.91868468513726
H        -0.51024467777338       2.07738262811533      -2.07067757583371
H         1.75833486931315       1.39078461742982      -1.12614472832954
H         0.60428991836921       0.11330437160437      -1.53731725834043
H        -1.87309187797955       1.24620580640320       1.12755517439555
H        -0.62212591639459       0.05312158324915       1.50959545098700
H         0.72972842781335       4.59942637764813       0.98168680676743
H        -0.95517050646271       3.97816060185553       1.27109794131382
H        -1.06068095744148       4.53102705264618      -1.04791887307425
H         0.65562701626321       3.99579726222442      -1.32650145795361
H         1.08424405171071      -1.12049742421107       0.54951748204968
H         2.10459488676602       0.22368268537242       1.17367896630460
H        -1.04252766983581      -1.15894716674137      -0.63882740470629
H        -2.23198990989176       0.09409003345955      -1.14201498942094
H         3.68276410620324      -0.08488789947919      -0.74007085361101
H         2.64259302087838      -1.41180282757156      -1.38645032226194
H        -3.62160959152952      -0.44778888290266       0.88787284149429
H        -2.42171495144508      -1.71513126126734       1.35009060640407
H         3.00544003764062      -2.73034403047291       0.71581189967282
H         4.03003793147093      -1.40116402978525       1.38013938607147
H        -2.85715768503437      -2.90232823779272      -0.83254850554720
H        -4.07448513643537      -1.64218427560877      -1.26436677992339
H         5.40745697110366      -3.23765134625299       0.40908251050078
H         4.61624653492790      -3.00028508895708      -1.19505557974151
H         5.64985091311102      -1.68942109749659      -0.48406012927846
H        -5.16797100948290      -3.66695636373093      -0.33061882860950
H        -4.20300323737331      -3.51893151055213       1.18666969648754
H        -5.42449171619235      -2.25147745662583       0.75874593134315
S         8.47423049900821      -2.27542195547643      -4.74370317127232
O         9.43968688362845      -3.34136929057236      -4.20534584822442
O         7.63004334222394      -3.05324360299952      -5.76372423612390
O         9.37453496903001      -1.40011453777102      -5.62744766067462
C         7.52683482057294      -1.38838608122447      -3.48027526194774
F         8.39428929987324      -0.74320698485407      -2.62008672897060
F         6.76217510887581      -2.29317495095842      -2.77305019617501
F         6.70191083765566      -0.46113733972761      -4.08699638032799
