35
C11H18BF4N optimized with ForceField in AMS.
N         2.36586440242374       0.02756028593548      -0.51620257483030
C        -1.44575190159917       0.05668465090229      -0.70343352495523
C        -0.04728086388226       0.02193498443802      -0.07958533406394
C        -2.52549545409264      -0.01043273740208       0.38323631637534
C         1.04464893523762       0.08080248356820      -1.15120055145885
C        -3.93044712360691       0.01155517783337      -0.22877656696189
C        -5.00257652423181      -0.05910709240883       0.85534270215506
C         2.96248137999592      -1.18303506001338      -0.29133565657966
C         2.96662492326584       1.18500203022131      -0.10259269343065
C         4.20009994396529      -1.25452860602589       0.35222830203252
C         4.19828208214193       1.14786854721653       0.55473253057420
C         4.81909611682485      -0.08004781740659       0.77713424271570
H        -1.56118236303804      -0.80816913911247      -1.39388969468664
H        -1.56478247581837       0.99663801890848      -1.28681643401057
H         0.07267440296873       0.88701954874993       0.60943118590275
H         0.07214916308909      -0.91495437077679       0.50825809031893
H        -2.39649694935842      -0.94609851858144       0.97197410488978
H        -2.40998392556014       0.85781110286247       1.06989688326949
H         0.94224354326927       1.01559760817427      -1.74723016851617
H         0.92465529942442      -0.76851500830125      -1.86110131835686
H        -4.06943986389290       0.94720103694828      -0.81360542398162
H        -4.05354860588347      -0.85528966533212      -0.91453536160577
H        -4.91656466234676       0.81121063788160       1.54025548669432
H        -6.00817412606947      -0.04342581813381       0.38562125464076
H        -4.89841086558484      -0.99769029689606       1.44036026164875
H         2.47829888603690      -2.10182533277210      -0.60068833815920
H         2.49103985673357       2.14383076137544      -0.27224950070652
H         4.66984705246268      -2.21378993940386       0.52617759456566
H         4.66667031224978       2.06464657600357       0.88673455617327
H         5.77661060050072      -0.12131407714554       1.27918509216634
B         5.95623542611730       3.08953979372688      -2.16227661671200
F         6.21864825203082       3.45458303341394      -0.81479685872275
F         4.94828210349471       3.93749414498793      -2.69422452676854
F         5.51507794178005       1.74024717825958      -2.21357047806249
F         7.14458214125196       3.22668253720464      -2.92798438785323
