37
C9H13F6N3O4S2 optimized with DFTB in AMS.
N         1.47996429257604      -0.42899579655371      -0.42168488829338
N         0.09515816567892      -1.51265039801928       0.82075699069901
C         1.09604668166002      -1.64741249405289      -0.04523222817843
C         2.57838653666314      -0.12957354665869      -1.33894927446234
C        -0.57569964658873      -2.60530119017781       1.52529725118492
C         0.71553065690047       0.50278231127271       0.22728863326279
C        -0.15699322939559      -0.18165689682294       1.01212996617261
C         3.65538660749491       0.68550807950410      -0.63444798823087
C        -0.20881187672889      -2.57882428543498       3.00385046335640
H         1.53205273489684      -2.57904966765751      -0.36606270446767
H         2.98006632180642      -1.08337455450121      -1.68748135733126
H         2.16633800172758       0.41791960097049      -2.19285860189912
H        -1.65369093328730      -2.48387831060134       1.38399116284564
H        -0.25242380732604      -3.54177482623649       1.06510348803989
H         0.84719908532036       1.56010828814494       0.07952633830955
H        -0.92787273015137       0.16696726267796       1.67658175511032
H         3.27701893732808       1.66810421414222      -0.35571386790559
H         4.50141307327363       0.81037451524130      -1.30840952276906
H         3.99133621946478       0.16800007571669       0.26218861490846
H         0.87065421131206      -2.66474777363388       3.12080456192081
H        -0.68534975448472      -3.42340109912772       3.49900211735993
H        -0.54656922092982      -1.65458872072628       3.47177089010824
N         2.47452191839526      -3.41057655127265       1.57997124407349
S         2.43405817109856      -5.00931905821715       1.38255807733731
S         3.88666770388122      -2.70615224080830       1.85748342782410
C         2.53825870453513      -5.77064483700154       3.09194381512853
C         4.88448345465132      -2.83893765467204       0.27065855799478
O         1.08179560758476      -5.29193221396340       0.95197652804008
O         3.52527266018864      -5.55871862186711       0.62168702298335
O         4.69405375402527      -3.29398008821088       2.89137131616561
O         3.58894729629566      -1.29078363470360       1.92797172541810
F         1.85354234590359      -6.90243102186882       3.10345134278655
F         1.99020167738874      -4.93641759461488       3.96821674570917
F         3.78319011720344      -6.01344792115247       3.43729368078288
F         5.58607930591870      -1.72150094253888       0.10954156161098
F         4.02864998514535      -2.92219939069261      -0.75649089285250
F         5.70111096487361      -3.86295035888129       0.24378552295673
