33
C7H16F2N2O4S2 optimized with ForceField in AMS.
N         0.84163154277447      -0.00963232990040      -0.03642064274585
C         0.08744829991257       1.22165692244683      -0.40927989149086
C         0.07579365967379      -1.23477349473635      -0.40922043650183
C        -1.33821145735908       1.25823614069334       0.16592484047817
C        -1.35702253637454      -1.25646828152545       0.15392064991739
C        -2.12039615505907       0.00893156463609      -0.23448858481753
C         1.17605014340561      -0.01006981412826       1.41138277554049
C         2.12037206044213      -0.01446267288417      -0.78935775065788
H         0.00285490464095       1.30025346936200      -1.51840416768770
H         0.62940458074713       2.13232606810917      -0.06650141260176
H         0.60633570191576      -2.14903347079803      -0.05802290552744
H        -0.00076565763171      -1.31796464736709      -1.51836063582778
H        -1.85842724485940       2.15457681672419      -0.22854294865698
H        -1.31827275355904       1.36033848632440       1.27059288295564
H        -1.34389526055507      -1.37073152577460       1.25785432995381
H        -1.89257732682099      -2.13944395450924      -0.25729725079678
H        -3.10939005856573       0.01424635697383       0.27248822261982
H        -2.29843213830787       0.01545552806722      -1.33248340774086
H         0.27374660070969      -0.01256224702001       2.05348085577323
H         1.77382503809749      -0.90868144001675       1.68262314256227
H         1.77141841194286       0.89028834571496       1.68321555800991
H         1.94370419063192      -0.01598335493641      -1.88860431211889
H         2.73153064380032       0.88490941754186      -0.54877630217895
H         2.72706729462296      -0.91568406931888      -0.54501370827504
N        -6.16476928390595       2.25008883077584      -0.86614887523450
S        -7.79819751393371       2.24900579124832      -0.96753480634137
S        -5.28366008963487       3.52618342595926      -1.38917741739359
F        -8.25086407055643       2.01451380273128      -2.56238585128110
F        -5.39565775350600       4.76814437318699      -0.27181776622668
O        -8.35487011287686       1.13924825561552      -0.12222968122077
O        -8.34246541547045       3.56813774532068      -0.49612938962011
O        -5.81126858557019       4.00932593194853      -2.71059093248415
O        -3.84707356127069       3.11833636763531      -1.53893422378236
