31
C9H19NO2 optimized with ADF in AMS.
N         0.45027475141107       0.08037024428847      -0.24264560008427
C         0.20906385069659      -1.35664749524292      -0.68748929496791
C        -0.91649402745468       0.69957591605744      -0.40452036898176
C        -1.18063129976301      -1.70618853976961      -0.14974403321951
C        -1.89870625799045      -0.35275627160474       0.10148097894819
C         0.85958095215491       0.11547177729543       1.22083026379389
C         1.46993625760930       0.77452741619439      -1.09215322820462
C         2.29298663738057      -0.32237764315012       1.46500081293355
H         1.04762285952082      -1.96915535498929      -0.33563695972305
H         0.31383062987551      -1.35177354573254      -1.78944267287209
H        -1.03679656268640       0.86947285106864      -1.48397582663902
H        -0.94404470543468       1.66330090822022       0.12265769790391
H        -1.12605997872141      -2.29293502345593       0.77978716687010
H        -1.71607533731573      -2.32209221562398      -0.88642190865697
H        -2.85303502433109      -0.27239606754012      -0.43824759556823
H        -2.11762263070542      -0.20756484624310       1.16996127694918
H         0.69093104363115       1.14895109239829       1.56372810114797
H         0.15060391565901      -0.53900745067193       1.74771159302941
H         2.38318041946209       0.14918052300476      -1.07599894309375
H         1.10526990718787       0.76945942892560      -2.12658194540373
H         1.60261254165786       1.79418553752493      -0.70135687123845
H         2.41793466545120      -0.54371299990706       2.53554914847825
H         2.56013292958318      -1.21264648066346       0.87586354624521
H         3.00736757153066       0.46669822264311       1.19422218705092
C         3.82782026619995      -2.70701115095189      -3.36173701874303
C         2.81788738639219      -1.88177670972204      -2.55133011094718
O         3.11253024548943      -1.66341277818307      -1.32685676293916
O         1.79013901115775      -1.47265797169124      -3.17162485164402
H         4.55785845070056      -3.20082850158426      -2.70625497098989
H         3.30462139714410      -3.45000795778170      -3.98116028596889
H         4.36709142020712      -2.03497199671228      -4.04812709436501
