38
C10H20F3NO3S optimized with ForceField in AMS.
N        -0.41222491527328       0.17829625685713      -0.07356118154279
C        -0.98619517081866      -0.87687275314730      -0.96492689402269
C        -1.48018770778507       0.45448393329855       0.93550651334412
C        -2.45349200193262      -1.04925966660464      -0.62016430677480
C        -2.53396589071130      -0.62934927964503       0.81983940334862
C         0.80940291747958      -0.34102743130392       0.62362534258951
C        -0.12727058585117       1.41167086196290      -0.87586318562790
C         1.99794385292459      -0.65652665866053      -0.31675243163923
C         0.48542899845425       2.57112907665874      -0.06922195551090
C         3.10845253965440      -1.38748958607680       0.43278489045349
H        -0.50395980046620      -1.86908352330281      -0.80825688311259
H        -0.87968637513641      -0.64283978663381      -2.04867811242984
H        -1.99564342994513       1.42434974761830       0.74659867386973
H        -1.09743482090468       0.49949922513240       1.98056607120100
H        -2.79193166629130      -2.09949364377273      -0.75815982924677
H        -3.07204244585054      -0.37078228286850      -1.24855356984094
H        -3.54767536754310      -0.25334240041860       1.07953920530628
H        -2.27027734561550      -1.48542066879027       1.47976286014098
H         0.54640668898420      -1.26700183385602       1.18640814690921
H         1.15875208964600       0.38287592519218       1.39300679427963
H         0.55569578519642       1.18324418984837      -1.72329280474581
H        -1.06757620205374       1.78255877859599      -1.34549635699324
H         1.67761734869056      -1.29083161649843      -1.16853776878840
H         2.42436771252028       0.28195259348356      -0.72794036932955
H        -0.10797015193316       2.79836124314705       0.83962181656588
H         1.53102407527826       2.34543085055539       0.22324623542943
H         0.50662130467742       3.48329125470525      -0.70183554164221
H         3.53699510664081      -0.72980074617924       1.21885874484910
H         2.71759548838974      -2.31574701011310       0.90084594354494
H         3.91435140295671      -1.66861919689815      -0.27718065046574
S         5.67573309807312       1.98508097403685      -0.49923939475969
O         5.34246288512338       0.55583975221657      -0.94958768050290
O         6.97876201820363       1.80213417330139       0.29323619196723
O         4.63447245621980       2.25736936623081       0.59686076829277
C         5.74479301397575       3.21330167308742      -1.83571508527302
F         4.49396650737735       3.34219111635539      -2.40933863178117
F         6.64959625586417       2.80028227719350      -2.79547637922307
F         6.14366652768142       4.43335229759213      -1.32354225583870
