46
C14H29NO2 optimized with DFTB in AMS.
N        -0.26447034018580      -0.63547012432618       0.16590635295740
C         0.59864561613126      -1.65680398014903      -0.54149763866087
C        -1.00553412772753      -1.42868938257456       1.20252169216886
C         0.58030802173244       0.39274130963876       0.86103607825109
C         0.03672833769942      -3.03628410942645      -0.19492424966318
C        -1.27344467215350      -2.77029936103213       0.54498086070441
C        -1.19914094084476      -0.01864140006195      -0.82943085912517
C         1.47249044939372       1.19508099565092      -0.07997636361295
C        -2.09701862357684       1.08012427060031      -0.27641302458444
C         2.52632824019908       1.94082628194648       0.75012691901256
C         3.66637316919768       2.49378674699377      -0.11121549224054
C         4.53958046112602       1.37573627899955      -0.69606733391822
C         5.83468829001005       1.93216046472774      -1.28399762609524
H         1.62151879386898      -1.54379031379602      -0.16358377815646
H         0.58190094315487      -1.45300407895760      -1.61293370639330
H        -1.89655272541618      -0.89279809729167       1.52552876905334
H        -0.31447090882437      -1.56670872950114       2.03913133834399
H         1.20636760059386      -0.17310375206122       1.55451879856472
H        -0.08781549817188       1.03983719055467       1.43380637418696
H         0.73488694723654      -3.54189200847495       0.47635302068811
H        -0.11008107417097      -3.64637240399456      -1.08748168583829
H        -2.12257743316971      -2.72004183462194      -0.14293593402816
H        -1.47959647105493      -3.53287524711172       1.29696090877368
H        -0.58428208010143       0.38901168225990      -1.63510194330037
H        -1.80955870371677      -0.82745034189960      -1.23815579672675
H         1.98019592630516       0.50818547387639      -0.75852034089204
H         0.88885373817229       1.90418664517917      -0.67600458053067
H        -2.78213893663301       1.37879159144367      -1.06975044840295
H        -2.68685523568331       0.73819979411282       0.57210779318113
H        -1.52141855678260       1.95419370104277       0.02223134773254
H         2.94960630337877       1.24539408149002       1.48090627985934
H         2.04601394106819       2.76003097544093       1.29589887308079
H         4.28593828317740       3.13630751394883       0.52389428979742
H         3.26214439899496       3.11591181455587      -0.91822080077432
H         4.77150627376729       0.64850247234113       0.08846195792986
H         3.99037519478117       0.84701683857079      -1.48168805072850
H         6.42462506847157       2.42889720699997      -0.51196431646461
H         6.43033682310376       1.12264931061897      -1.70730922021383
H         5.62041773243320       2.65464333826007      -2.07400012715438
C         4.04939320375833      -2.49136238099888       2.68357688905317
C         2.90072538149353      -1.87009190958276       1.86055131750002
O         1.73560437236094      -2.18412631616146       2.19764724499854
O         3.21402183790664      -1.10575655047671       0.92123050292446
H         5.01180478067865      -2.12625064785137       2.33090389913170
H         3.91526530045203      -2.23288453319623       3.73305459596437
H         4.00711929506585      -3.57542507560528       2.58654502784671
