23
C7H13ClN2 optimized with ForceField in AMS.
N         1.11146722369114       0.35922008932322      -0.34146692675424
N        -1.11057242702034       0.36476843219928      -0.39903074308836
C         0.01057116658742      -0.25095362419964      -0.82132016837896
C         2.49967003185782      -0.03630396991804      -0.56500270287615
C        -2.48752398844764      -0.03190286065478      -0.68197052818660
C         0.67355274637750       1.39899515627623       0.39753618055920
C        -0.70642935831772       1.40195574034010       0.36244689439686
C         3.08290953522388      -0.66634325440615       0.69401307104164
C        -3.11007284817380      -0.69084781514059       0.54329288162993
H         0.02442600265154      -1.13723455087327      -1.44478298298031
H         2.55305729770557      -0.77736697234319      -1.39079354756512
H         3.09899677797366       0.85268852069971      -0.85751368409585
H        -3.08117266042710       0.86095106716683      -0.97413641816493
H        -2.50829753310666      -0.75241347434056      -1.52847535523778
H         1.30980041320417       2.10086186390991       0.92180338904914
H        -1.36573630737785       2.10552693803078       0.85511544804919
H         3.06291338174524       0.05881476699848       1.53447792206741
H         4.13454910453759      -0.96904661127970       0.50665497927213
H         2.49550179577446      -1.56700917194865       0.97304919982868
H        -2.52384830270521      -1.59064030931090       0.82761132288742
H        -4.15148422194825      -0.99967810125574       0.31403626948619
H        -3.12611455290751       0.01940115440939       1.39676686634280
Cl        3.01595598050208      -0.74087138068273      -4.33543310158229
