37
C11H20F3NO2 optimized with ForceField in AMS.
N         0.26688983434979      -0.11168468749572      -0.18733451700772
C        -0.59729694653352       0.69935433485905      -1.10486753319992
C        -0.49115409740395      -1.33625085357729       0.23076521211253
C        -1.96435947774328       1.07468757251237      -0.50930345547931
C        -1.87635199281314      -1.04200304589840       0.84149093202299
C         0.67744453965660       0.66738007363751       1.03219399740341
C         1.46265258044971      -0.53858929128033      -0.99165413830714
C        -2.72629238362008      -0.17780570347605      -0.08629115556350
C         1.54132259145892       1.91475514879421       0.76856364723477
C         2.53056041383619      -1.34675572474748      -0.23017662580569
H        -0.80015713823443       0.12865994411340      -2.04173812738433
H        -0.08359063425756       1.62652611281962      -1.43478741954991
H         0.07740990825353      -1.91704284153272       0.98885915931979
H        -0.64906242228410      -2.01251240608316      -0.64019632768651
H        -2.55712837876302       1.61044585215021      -1.28216466295374
H        -1.85257045376340       1.77099691093769       0.34704336418928
H        -1.77641313263790      -0.55380173938902       1.83317454652781
H        -2.40270056835022      -2.00619675093028       1.01281689304905
H        -0.20439608711092       1.01028301021200       1.60706960834880
H         1.23116314536328       0.01457355821269       1.74108725141052
H         1.14109920581533      -1.16061726738703      -1.85641513233702
H         1.96400023835760       0.34120204030119      -1.45120021668423
H        -3.66210411194821       0.11691705922922       0.43611016720330
H        -3.00754911022781      -0.76563618012384      -0.98800870161817
H         1.79648947614834       2.38270610184025       1.74262240122925
H         2.49875908917898       1.66251023124991       0.27186014770974
H         0.99441488086726       2.67528464081749       0.17713698945075
H         3.33285673793397      -1.63453924152331      -0.94182398997411
H         3.00696606912236      -0.74792991302736       0.57156463728019
H         2.11761272567385      -2.28439441939157       0.19110879711745
C        -0.52480682240815      -5.37002669790058      -3.78189149992099
O        -1.23900013971920      -6.25111253974851      -3.33008575980175
O         0.41265148788037      -5.66555438063664      -4.50568740286463
C        -0.78580619248489      -3.93132304005947      -3.44792847823546
F         0.30361850819828      -3.41498144644974      -2.77422267303187
F        -1.90969483620271      -3.80955209990578      -2.64916929657643
F        -0.98193436483786      -3.21262418142252      -4.61254108932721
