43
C11H24F6NP optimized with ADF in AMS.
N         0.85304594252020       0.34620913084859      -0.06107255970507
C         0.80984146322869       1.48495804995494       0.95045176816509
C         0.02116611174638       0.75448169126331      -1.27250724827879
C         0.32343000571303      -0.92153199295390       0.56857521123871
C         2.28559666397872       0.17163424588931      -0.54707898618893
C        -0.60912803485881       1.85904454591754       1.35388625908722
C        -1.41133251146435       1.11209618102390      -0.91342049080656
C        -1.45962693497654       2.22520758073141       0.13574593558515
C         0.47617286226366      -2.18189502339954      -0.26854043438892
C         3.29077488902419      -0.27940147156568       0.52260220601884
C        -0.21956445405263      -3.35404152262295       0.42378422869890
C         4.42602811813603       0.72666837873064       0.71729743575472
H         1.41040290325113       1.16403386421704       1.81373134940785
H         1.31020534647307       2.33300715143652       0.45988777227678
H         0.54277429796385       1.62188195197236      -1.70377402159427
H         0.07849135051699      -0.07555131564867      -1.98991907266811
H         0.84440664162424      -1.03790997576203       1.53004667085262
H        -0.73511325177814      -0.74529696498901       0.79270384926047
H         2.22717718931823      -0.53878042447420      -1.38335473533781
H         2.56373738351965       1.14821668388751      -0.96602531157257
H        -1.08374434099923       1.05297026826199       1.94079607566678
H        -0.52304366127830       2.72414223214688       2.03297717190480
H        -1.89531920251195       1.44384842439427      -1.84738625709206
H        -1.97494429165932       0.22398116559139      -0.57490202323267
H        -2.50012288843227       2.42122696627927       0.43987742187355
H        -1.06053300709704       3.14963836314998      -0.31134289617002
H         0.03700977912594      -2.03738251944573      -1.26900853220733
H         1.54220195904791      -2.42000092201675      -0.41033709041036
H         2.79238468751279      -0.45366436517680       1.49025597226713
H         3.70534909500863      -1.25965853936456       0.23168506826505
H        -0.10828523110248      -4.27494808394617      -0.16609512341113
H        -1.29629474648702      -3.16024911039091       0.54733984669455
H         0.20898803849033      -3.53901416307706       1.42105987407102
H         5.16543342590507       0.34630663139452       1.43788977514182
H         4.04523775304409       1.69403169077793       1.07448939140900
H         4.94002173566049       0.92559408587245      -0.23521241417977
P         2.45299455865394       4.09115224238358      -1.86875316125992
F         0.91431370262345       3.86778599705566      -1.21806201571718
F         2.57654993727818       5.51836356958338      -1.08139279968825
F         3.06987693574642       3.29845518206215      -0.51771142293485
F         3.96239159590215       4.22709905920002      -2.47940732992005
F         2.29245559573633       2.58689548234618      -2.61013748584641
F         1.78846917538432       4.80504886756124      -3.18067010882905
