51
C13H28F2N2O4S2 optimized with ForceField in AMS.
N        -1.56005842602940       0.10920799702294      -0.07840968483454
C        -2.57956161116234       0.51078823425488      -1.10289404538884
C        -1.79982170217062      -1.32006049394207       0.30726966524248
C        -0.21767661253529       0.20736681636824      -0.74980744575424
C        -1.62997893217680       0.97872589090700       1.14775051943878
C        -4.03702782089831       0.28241729819167      -0.66704592124567
C        -3.24162968907079      -1.61191659239788       0.76985742376202
C        -4.25766370236652      -1.17698924874200      -0.28170673184340
C         1.00855835401189      -0.11715191101818       0.13958494502692
C        -1.27274431353881       2.46194991132286       0.93903392030627
C         2.31016167429684       0.04769560740052      -0.65679603249946
C         3.53501094430951      -0.30216138427266       0.19651885619093
C         4.82743942119307      -0.13895740480792      -0.61127141623112
C         6.04798814917833      -0.53718837623670       0.21160526874975
H        -2.43124232023603      -0.07677628142480      -2.03940903402559
H        -2.45864386919268       1.57252149337137      -1.40318533039785
H        -1.12655804722802      -1.62740304265008       1.13649057319060
H        -1.58163137729105      -1.99675304252648      -0.55113691596580
H        -0.07651976143312       1.22142502512570      -1.18613238737383
H        -0.18119413092340      -0.48415998478558      -1.62370270261805
H        -2.64136291445401       0.96046106024334       1.59659898823121
H        -0.96862695367663       0.58001642871333       1.94689583487131
H        -4.70863409467434       0.53317290917371      -1.51654264750465
H        -4.31883785990218       0.95343436083649       0.17017439521423
H        -3.45691941235132      -1.11373761562540       1.73818477920571
H        -3.34969056400292      -2.70472462107831       0.94235287179757
H        -5.28651557819091      -1.30520281443605       0.11820243492739
H        -4.15729033101389      -1.82038645025107      -1.18385343242897
H         1.05598220518010       0.56379849189507       1.01306320880175
H         0.95488759517268      -1.16424005970619       0.50170731317356
H        -0.22840389586576       2.59401388072397       0.59392577737780
H        -1.97145648608425       2.95898050471773       0.23810695629734
H        -1.35933971154430       2.98854479364852       1.91304740498368
H         2.39621922093435       1.10019241469474      -1.00682983036682
H         2.28317581674498      -0.61962647562179      -1.54638678203395
H         3.45022262722723      -1.35506577804717       0.54542853916006
H         3.57098673775275       0.36409001243487       1.08670670750587
H         4.78460333840269      -0.77860346655340      -1.51960527163573
H         4.93777541100628       0.92021479109685      -0.93167613191916
H         5.94689019312557      -1.58111323534357       0.57703769964363
H         6.95502984870021      -0.47383874911686      -0.42399387401134
H         6.16817620875868       0.14590256081391       1.07919382319739
N        10.30181616932694       0.66822271578631      -1.79277696611134
S         9.76081349300053       1.14310474870759      -0.32321088418424
S        11.40760679021718      -0.52801420542622      -1.94758147942324
F        10.92521114099072       2.09496443118858       0.41185901286368
F        10.65787204985528      -2.00549324386073      -1.70726366644652
O         8.49801235008243       1.94099709385212      -0.48544768895578
O         9.49917306306599      -0.05765320100376       0.54226280281899
O        12.49380655624424      -0.36101397888551      -0.92209481827967
O        12.00034806893521      -0.49059289883195      -3.32768537969911
