48
C12H22F6N2O4S2 optimized with DFTB in AMS.
N        -0.78545330771647       0.01703012329656       0.73580464641768
C        -1.61457054843248      -1.03829541408538       0.05369349312382
C        -1.78342269242024       0.89170027895386       1.46235754259540
C        -2.91685570719947      -0.34267613513520      -0.30300017621549
C        -3.16720588072022       0.56409577385923       0.89966897078737
C        -0.06124355888458       0.81212763787048      -0.31059435197514
C         0.15392681605453      -0.60500950541884       1.72749433948650
C         0.91662714848803       1.85094038921058       0.24028197302964
C         1.17992867820461      -1.55030794940416       1.10811224535609
C         1.39517332325548       2.75374266237891      -0.89633703721357
C         1.95883503597772      -2.24130907705824       2.22798882678711
H        -1.07481136580588      -1.43372911371518      -0.80623699503510
H        -1.79608385601807      -1.83411200847487       0.77838038686792
H        -1.72245220946780       0.66982069425583       2.52741358514544
H        -1.51505033199224       1.93643985536153       1.30884532895036
H        -2.81622425816492       0.23539998638812      -1.22565051597815
H        -3.71711640802621      -1.07165932153834      -0.43476918944568
H        -3.75235798808413       0.03302226374954       1.65591352587021
H        -3.70254597713167       1.47275367220695       0.62215184861349
H         0.47567683508334       0.10608911325289      -0.94878423387768
H        -0.82752626947987       1.30528659303098      -0.91405144174593
H         0.64810761440503       0.20647543716876       2.26497870906392
H        -0.46510810735842      -1.15641253683922       2.43576419079480
H         0.43932958175222       2.46264765369400       1.00955788957208
H         1.78012338706319       1.35483743854436       0.68996123357409
H         1.87595131430022      -1.00484226717714       0.46433170269185
H         0.67601755455488      -2.30709856494082       0.50158606531627
H         1.87370026507876       2.16401736126109      -1.67876313299265
H         0.55762258988556       3.29908741180675      -1.33208417950911
H         2.11704824567605       3.47323142675049      -0.51210731156353
H         2.47796254193071      -1.50543588507105       2.84257402090551
H         1.28256527561434      -2.81255820469466       2.86352440385745
H         2.69451776258056      -2.92075699539984       1.79941324477347
N        -4.12639548508888      -1.07772856540654       3.54649575440563
S        -4.86461774041748      -0.21096000179583       4.69701531412953
S        -2.67979574183747      -1.64920768030529       3.88994243214448
C        -3.97250275202817       1.43821440508452       4.83549412674437
C        -2.70935436120419      -2.89210076807151       5.30459333031948
O        -6.15057042509586       0.14322781838368       4.16560673011265
O        -4.77755499115005      -0.78759474837152       6.01218034975277
O        -1.70998056728874      -0.64281511921306       4.30501065127456
O        -2.28394801099812      -2.45022983170842       2.74107677792209
F        -3.02068980420699       1.41318252103401       5.74560493448976
F        -4.84396450529490       2.38097017113508       5.14906167407251
F        -3.42385751829546       1.76098439261350       3.65569509049512
F        -1.74747494401819      -3.77532842600255       5.07149171722676
F        -3.86641391366709      -3.52137615007992       5.34548197055285
F        -2.47327370631099      -2.30333393188413       6.45636158862899
