43
C13H10F18NP optimized with ADF in AMS.
N        -1.76131163666203      -0.05930858005133       1.41635107273030
C        -0.93823374912543      -0.32720448279650       2.63123264252373
C        -2.82835280416865       0.76200604862255       1.48796851966127
C        -1.42975563994590      -0.66808134289528       0.25424220455021
C        -0.91307581713614      -1.79786383606267       3.00866115584235
C        -3.59530765730498       1.01803726349497       0.36500914876177
C        -2.17290594685247      -0.45404059165532      -0.88602428695279
C        -3.27066882679328       0.40409084847864      -0.83519656260560
H         0.06793711264272       0.06508247268193       2.41379565178398
H        -1.37896147214131       0.27414189769972       3.43604811197188
H        -3.06905520015740       1.16865859869702       2.46659575391909
H        -0.56667500271382      -1.32851451106632       0.28610025977071
H        -1.92754267698666      -2.16770008338067       3.19938413771315
H        -0.32209829075282      -1.90580685938929       3.92953535536913
H        -0.43866387902962      -2.41879869435468       2.23558427168165
H        -4.47279908170263       1.65504540215571       0.46349191034911
H        -1.89779738212017      -0.97270875716779      -1.80377400394009
H        -3.88423549646463       0.57161541228355      -1.72195852775641
P        -6.24269867534098      -1.25433544574258       2.77346555952852
F        -7.05447722376908      -0.37053506402646       3.91823232944635
F        -5.45180001994169       0.15768012138038       2.26445035297699
F        -6.95121892094742      -2.68205822828376       3.23118302219908
C        -4.84400115906518      -1.54493986903449       4.16246195930339
C        -7.79616585204924      -0.88018641954794       1.59790667906415
C        -5.17627315712754      -2.18961436419157       1.34104081959363
C        -5.24832640046758      -1.35417823415788       5.66042211904747
C        -7.92929013448950       0.54014080412501       0.97196280912968
C        -5.33347750470517      -3.71154542338294       1.04368512804264
F        -3.75162581036018      -0.68018934946003       4.01203680269066
F        -4.33221256708051      -2.82118544358241       4.09432057521617
F        -8.93864803126400      -1.04994981261581       2.34531587654008
F        -7.90431944859177      -1.75466764790125       0.53801918537914
F        -3.81188104202816      -2.03903527502321       1.60575775126300
F        -5.36773533110118      -1.55587034809724       0.12864420858643
F        -4.21779113550491      -1.79562079904824       6.45000075478446
F        -6.34456796819906      -2.06429938964715       5.98437261539072
F        -5.44524312485869      -0.05221154927243       5.96717093242985
F        -7.88418900427620       1.51505231560338       1.90578654324671
F        -6.95005615262879       0.78389827678238       0.05103785825424
F        -9.11838265935770       0.64304438362884       0.31897536018258
F        -4.97100867601197      -4.46922901763641       2.09953255947117
F        -4.49998807069260      -4.03892966585814       0.00150692781689
F        -6.58618636102570      -4.04234307810427       0.68148446194259
