44
C14H23F3N2O2 optimized with DFTB in AMS.
N         0.41364111922362       2.29247250597390      -0.17472382180530
N        -1.53864897814679       1.50301205303487      -0.61019542604665
C         1.84294288158143       2.56290077104186      -0.30801030245910
C         2.65025108666997       1.45391154454018       0.37390319797486
C        -2.60906543720434       0.78568956883860      -1.29556592689892
C         2.45785087683413       0.10495704832803      -0.32339200827934
C        -2.88957254774462      -0.54606178365826      -0.59459100249679
C        -0.31562859186511       1.67968014857942      -1.10181363073924
C        -0.35366569388752       2.50282233457441       0.93894593178578
C        -1.58901388752588       2.00597854253013       0.66381394407791
C         3.27527400752797      -1.00044062871568       0.34877390872667
C        -1.66311390628106      -1.46472243253458      -0.57419205902294
C         3.04498789006719      -2.34279739337172      -0.34335687426705
C        -1.96393312157756      -2.77151996785129       0.15568386922849
H         2.05025714739809       3.53316160407398       0.15012247342761
H         2.07136918649229       2.59596224595831      -1.37631029657892
H         3.70411261152743       1.74375089605850       0.33262901742993
H         2.35826910668710       1.38534015219567       1.42756779209828
H        -3.50307868316030       1.41584752083929      -1.29072460285897
H        -2.28495281430187       0.62565329618362      -2.32686655682174
H         2.75414674561209       0.20014592164177      -1.37224004979031
H         1.39671446232246      -0.16698516827760      -0.30155199956054
H        -3.70778766709927      -1.03494080252661      -1.13115110627187
H        -3.22733070699798      -0.35218207092647       0.42903482736369
H         0.05546797281558       1.40641779262947      -2.08582615659822
H         0.03008761254875       2.98706885738684       1.81990549452429
H        -2.48501413666479       1.97743412789133       1.25887537388895
H         2.99133936804505      -1.07856518203332       1.40472603715278
H         4.33936299816381      -0.74511214777215       0.30627779444202
H        -1.35608390580220      -1.68184182895781      -1.60029898930450
H        -0.83302616982604      -0.95360179257769      -0.07532142514115
H         3.33053940364033      -2.28255991342729      -1.39385153967699
H         1.99260616170055      -2.62573091397620      -0.28609358961915
H         3.64073431820532      -3.11945829239669       0.13673915788945
H        -2.25147503833368      -2.57771040103186       1.19033836628776
H        -1.07815884827017      -3.40653348123085       0.15389101738013
H        -2.77638018675543      -3.30684558680028      -0.33710093661258
C         1.48019991675571       0.56014439924005      -4.11644180637959
O         1.63034628721464       1.27634378925810      -3.11814813114358
O         2.22581241829347       0.04248893092846      -4.90904792178777
C        -0.12692065279854       0.24668510870342      -4.34384967133879
F        -0.49182381219051      -0.25174128305026      -5.52311880210005
F        -0.88209560714627       1.36243305430268      -4.13539266468284
F        -0.57327561484705      -0.63086868381629      -3.39305552689572
