47
C13H26F3NO3S optimized with DFTB in AMS.
N        -1.71261088600554       0.33199741815903      -0.10975874580139
C        -1.80075139065671      -0.92976018635771      -0.92498400117442
C        -2.79577102182718       0.22041361254162       0.94085713922137
C        -0.35676537327228       0.42961839116267       0.55269369695162
C        -3.24330053099793      -1.38615887544823      -0.79061720044011
C        -3.53788130380961      -1.08726232547311       0.67639389630081
C        -1.96360021817345       1.51136343153232      -1.01843047032977
C         0.83132206787163       0.26915017305439      -0.39320159557336
C        -2.26702901097500       2.82023941746471      -0.29909325714248
C         2.12978332323402       0.27203399022397       0.42497414143362
C         3.32609781256266      -0.06744247486902      -0.46974071673091
C         4.64446905912822       0.18455347553711       0.26725189042177
C         5.84357181141515      -0.19435565173834      -0.59892397705178
H        -1.13262812948302      -1.66903555177319      -0.47917742413637
H        -1.48864446976959      -0.72583283231440      -1.94825365218794
H        -3.46604097096444       1.07282042006350       0.84191422090222
H        -2.33900864435930       0.24885962852234       1.92992100326333
H        -0.33128521892841      -0.35898449857821       1.30993689166553
H        -0.31283445854414       1.39828844144048       1.05176683812474
H        -3.34489768618391      -2.44510461801640      -1.02839522435317
H        -3.90153771889491      -0.81103237292743      -1.44605181643598
H        -4.60484602383085      -0.97808237993287       0.87283658976632
H        -3.14459160478930      -1.88573013997341       1.31036133588588
H        -1.07027177857175       1.61809396929743      -1.63411478747238
H        -2.80213244240564       1.23946536087685      -1.66427976573911
H         0.75473026073540      -0.67054073870994      -0.94793622201831
H         0.86894134145800       1.08911428811217      -1.11221254410024
H        -1.96483557553228       3.63879405536123      -0.95133614678102
H        -3.33100019977445       2.92633838949007      -0.09029210715524
H        -1.71125884228160       2.91391156754265       0.63016474664914
H         2.05504243052857      -0.45426071772314       1.24274586207338
H         2.27067122446417       1.26543163004634       0.85826998248510
H         3.29318545394191       0.56292019288622      -1.36257372875966
H         3.26218191533603      -1.11490734441916      -0.78795773790110
H         4.70385223120688       1.24629371813083       0.52419973623103
H         4.66531969512998      -0.39417090553232       1.19783615534329
H         5.84807302616296       0.39301271650462      -1.51776377462110
H         6.77061453026582      -0.00018525854401      -0.05880973284516
H         5.81100409518379      -1.25313482820925      -0.86343669506408
S         2.69497340423459       4.24471198341076      -0.83508509667347
O         2.98772921479779       5.12642793856381       0.26373490170291
O         3.12846089255700       2.87030945888988      -0.66349553303700
O         2.85749397258446       4.78460983081665      -2.15883807924231
C         0.83554052220855       4.01571713750688      -0.70054920428503
F         0.10675769218838       5.12711931596480      -0.68899301855760
F         0.52518471947573       3.33878270730568       0.42936456972259
F         0.36118340565958       3.25548183843116      -1.71368632163421
