34
C10H18F3NO2 optimized with DFTB in AMS.
N        -0.14039859934354      -0.63817271500645      -0.10607422410087
C         0.41936685175867      -1.45124923521192      -1.23864010411905
C         0.98204965100545      -0.61150546541388       0.88838020262914
C         1.90370101972527      -1.10723386094697      -1.30902583341216
C         2.26281483726327      -0.52540068056768       0.06560052820993
C        -1.33741304096201      -1.30702062967998       0.50807402589499
C        -0.44551987701947       0.74217703772053      -0.60830306770869
C        -2.47878035130392      -1.53484301367278      -0.46850105917930
C        -1.09947514175183       1.66626358520241       0.40930503060786
H        -0.12019172195433      -1.21821487910952      -2.15645864683629
H         0.26441252223785      -2.50455367160284      -0.98561090758534
H         0.94652655664422      -1.54937950809067       1.44314716528836
H         0.84849919449197       0.22033372855472       1.57893823799997
H         2.10610143737568      -0.38456092029306      -2.10297096447214
H         2.47747594899143      -2.01237313865355      -1.51331274501738
H         3.04739368796619      -1.10875192579855       0.54936137842125
H         2.60655877145077       0.50781131930089      -0.02307170623392
H        -0.99444297801237      -2.27617625685950       0.87916301884580
H        -1.65387210366930      -0.69462973364099       1.35505698167273
H         0.50093201854716       1.17108414249127      -0.94537345649084
H        -1.09990668692442       0.63322839499593      -1.47611197161137
H        -3.29278432024321      -2.00177754508756       0.08523954266067
H        -2.84283420187233      -0.60646225235726      -0.90633436573237
H        -2.17348479832270      -2.22052571473221      -1.25682196618678
H        -1.15511829857029       2.66043096290645      -0.03388709402478
H        -2.11113972977736       1.34504733969692       0.65007497515337
H        -0.52151144290799       1.73536537565741       1.32912944196716
C        -0.03548987416272      -4.97461750716405       0.18287275595309
O        -0.73368265393758      -4.07293456554727      -0.29122435404650
O         0.00363326852023      -6.17389938243577       0.07505925738495
C         1.11146315225464      -4.32153444729169       1.18916062895321
F         1.90354482236466      -5.16347229798179       1.84876954760903
F         0.53111911124266      -3.51318631204860       2.12610038844947
F         1.93641781919524      -3.47951769333195       0.48903005635679
