62
C16H36F2N2O4S2 optimized with DFTB in AMS.
N        -0.64190783019906       0.28635269352179      -0.10483005638231
C        -0.19540346934422      -0.88555059017278       0.73037793432521
C        -1.43483767199346       1.23494399099878       0.76395338296830
C        -1.47165808422392      -0.23606200813067      -1.24986294583498
C         0.53163540755579       1.04389193314017      -0.66553220518460
C         0.64950951373286      -0.53373090580181       1.95092819588325
C        -2.20397404590987       2.32280814200020       0.01924657315284
C        -2.69696038583093      -1.05167952915911      -0.83938420544689
C         1.59294409387463       0.19947874446108      -1.36915152181910
C         1.08253430370267      -1.83550513400569       2.63848468543914
C        -2.74584072812397       3.33096561741989       1.04221383529652
C        -3.65942276026864      -1.17934047330173      -2.02643896711313
C         2.62192064912128       1.12870798455816      -2.02654041090297
C         1.85916287350548      -1.54386415875633       3.91978573225395
C        -3.59684207701288       4.39984703820148       0.36115361197563
C        -4.89019986492817      -1.99457894144673      -1.63520957091235
C         3.72529234868194       0.32650479564550      -2.71264675624680
H         0.34746674011816      -1.56365119436031       0.06783797053961
H        -1.09816174478387      -1.39205443637878       1.06795238131013
H        -0.72090591350341       1.69492672443896       1.45032272830814
H        -2.13071283960051       0.63734920959069       1.35110191918402
H        -0.81385844872829      -0.85527588814717      -1.86391797987323
H        -1.77222659798779       0.63016559008799      -1.84352807934800
H         0.99302495101871       1.58408567302617       0.16436007278381
H         0.12627241786102       1.77817098887661      -1.36577120522816
H         0.05751763724091       0.05421717656121       2.65597084754920
H         1.53363511299436       0.04608578584338       1.67025558664933
H        -3.04562425748441       1.88523704125853      -0.52281186613445
H        -1.56281004490853       2.84353007154457      -0.69851884829986
H        -3.22123584517101      -0.58025208137952      -0.00893956880718
H        -2.39274372013075      -2.05062119483715      -0.51650746052989
H         1.14472095895839      -0.43646208691842      -2.13645046478823
H         2.10510466619466      -0.44495330177683      -0.65036902927565
H         1.70532282587592      -2.42084653220337       1.95314870650685
H         0.19383003360821      -2.42646082259576       2.87733557508153
H        -1.90848182791143       3.80423531770769       1.56590973799297
H        -3.35257341320276       2.80057723965635       1.78085576276173
H        -3.14484416916506      -1.66047443387155      -2.86585537842050
H        -3.96986693309579      -0.18002513942325      -2.35048389075410
H         3.06230391594823       1.77956351620847      -1.26412117189002
H         2.11958949273068       1.76515864470874      -2.76243938809212
H         1.23691289608409      -0.98935687945134       4.62273736865544
H         2.75263504000916      -0.95534744060921       3.70456453717931
H         2.16282939660103      -2.47984253427265       4.38807639070770
H        -4.46156289246457       3.94673011724628      -0.12404545382570
H        -3.01525307584315       4.93500443528503      -0.39158089507178
H        -3.94934789751653       5.11648441627788       1.10256232843013
H        -5.43029802650333      -1.50400900740662      -0.82585952213997
H        -4.59770794257315      -2.99132785166798      -1.30364558886024
H        -5.55644509735169      -2.09203123573402      -2.49214788546064
H         3.30568792572604      -0.31574248593575      -3.48775182954520
H         4.25018819551145      -0.29806471440060      -1.98903404834433
H         4.44339880045334       1.00444824846171      -3.17315736789778
N        -4.28244217891028      -1.70761432834664       1.99093916156845
S        -2.99502834759227      -1.75920236257274       2.91159790749988
S        -5.22504105541932      -0.43462492106974       2.13976220931334
F        -3.53032342571677      -2.21813499667524       4.35641390988858
F        -4.34297394091992       0.73220355312524       1.35141321648940
O        -2.18916511228028      -2.85490053603339       2.45805948690641
O        -2.31828199275816      -0.51366030224519       3.16228232067316
O        -5.40756714862851       0.11063082443095       3.44071365324284
O        -6.34382658662237      -0.62099665499541       1.27918819091331
