35
C11H17F3N2O2 optimized with ADF in AMS.
N         0.12887204599396      -0.26504427416509       0.44708856728579
N        -1.47723844893885       1.05091447798511      -0.15269495552314
C         1.32901812819973      -0.76807627244987       1.12620155296592
C         2.47988501020487      -0.99989913899966       0.15470829415933
C         2.93255034840422       0.27058457755133      -0.56004124489005
C        -0.40640601077051       0.94882897452371       0.64876034382697
C        -0.59785528208859      -0.93703018518353      -0.51978871717436
C        -1.61062158602871      -0.10478847608589      -0.89762313483530
C        -2.29094974714521       2.26860845084023      -0.27329572455482
C         4.08454569803087       0.00059640469174      -1.52351353484075
C        -2.10913972852108       2.93344687740210      -1.62763889151233
H         1.59631551222390      -0.00649016655291       1.87394042544707
H         1.04870728429572      -1.69254824109704       1.65593923481792
H         2.19268391873402      -1.77141569996263      -0.58461147022057
H         3.31457584221598      -1.43120756906326       0.73666145171874
H         2.08570525741671       0.72742198425370      -1.09928015920646
H         3.23562892799891       1.02215029261144       0.19075229092024
H         0.03059030099581       1.79412826689596       1.25148525224429
H        -0.33952187170813      -1.93566578620562      -0.84852699858688
H        -3.33797918656830       1.98538857466121      -0.07759198780131
H        -1.95386407879620       2.93364001747209       0.53480079814945
H        -2.40419711811619      -0.24020291023650      -1.62127605830778
H         3.79519204075151      -0.73688818295436      -2.29062085851874
H         4.96505099796367      -0.39707039141665      -0.99296976205512
H         4.38791498033199       0.92294866667939      -2.03956513204281
H        -1.04528039892955       3.17394486323668      -1.77097054815285
H        -2.69550377422813       3.86357036085879      -1.65120013638997
H        -2.46247842661292       2.28861539520844      -2.44660398719717
C         1.22967287688596       3.59476345537322       0.48042279221678
O         0.84551542889763       3.24520614406207       1.63592088747502
O         1.00023490484712       3.07222631300127      -0.63263364759343
C         2.10222957674934       4.89371071429671       0.47445304019088
F         3.06413433301575       4.87319159960286       1.44613457571108
F         1.31909284025636       5.99878699791308       0.70644807868457
F         2.73982452933834       5.10047459295188      -0.71172350811020
