32
C10H15F3N2O2 optimized with ForceField in AMS.
N        -0.68058946542682      -0.88450705999902       0.41138785737336
N         1.51185364035083      -0.52627470872146       0.32757567864931
C        -2.08434828260538      -0.77805459023887       0.80500569875738
C        -2.90424598884877      -0.04540038014874      -0.26438650880483
C         0.36339671655226      -0.24379354891528       0.97198407390689
C        -0.17532811783525      -1.59936669315468      -0.61467159791809
C         2.83013294785761       0.03733788992540       0.60329213302353
C         1.18494456288366      -1.37348545237439      -0.66924877338488
C        -2.42498827952003       1.39115777415581      -0.46949856963138
C         3.15071636726106       1.14025082841168      -0.39853510489239
H        -2.17022354623977      -0.23473908283371       1.77219062999831
H        -2.50013823683390      -1.79755901957338       0.95493695249978
H        -2.84726029587726      -0.59518182121723      -1.22866346603888
H        -3.96870830411680      -0.02472258428770       0.05395605085869
H         0.28272882979497       0.44350991186808       1.80467543747570
H        -0.75371298693625      -2.22196531001821      -1.28494321421755
H         2.85357733174613       0.46322960332756       1.63031665124445
H         3.59939531332000      -0.76269012936040       0.54394808026918
H         1.87927963295994      -1.78249124649275      -1.39187700978401
H        -1.39558066669178       1.40187458062339      -0.88625384795259
H        -2.43593952323288       1.94459389019435       0.49345097715608
H        -3.09779145245012       1.90886963646537      -1.18494607264893
H         3.15591964330340       0.73259407131139      -1.43148812866836
H         4.15003513572094       1.56954900112779      -0.17652518925207
H         2.38980644392087       1.94680308202760      -0.32942496604484
C         0.42026468258608       0.09144441151324       5.52990986857666
O         0.84214753139004      -0.18338314890137       4.41772599178774
O         0.82291584312754      -0.53246791374552       6.49879328180259
C        -0.58443133245164       1.18947547567296       5.71347179446025
F        -1.71777344887666       0.68193932056474       6.32172202877629
F        -0.93577714345159       1.73767737406112       4.49179722785707
F        -0.04397011798045       2.17935986693223       6.51344351356553
