44
C12H26BF4N optimized with ADF in AMS.
N        -0.56714029239369       0.33888451468113      -0.06352001317682
C        -1.25600700144680      -0.37683889780213      -1.20546482445184
C        -1.61396868810514       0.77197884124258       0.95535403077968
C         0.45342041778639      -0.55883438125266       0.62761096937525
C         0.09311834572616       1.58357739918444      -0.64646428539995
C        -2.10228164339064      -1.55401048682076      -0.75012405424104
C        -2.48109300611437      -0.37999431402972       1.43491724307314
C        -3.14728680352456      -1.11547260327758       0.27482427966422
C         1.63522774223711      -0.98530735903954      -0.22393207206459
C         0.91505854606655       2.39990762723714       0.33062497326751
C         2.59070022666576      -1.83166984015020       0.62745970022483
C         1.43950828615513       3.67090097583718      -0.33593128925771
C         3.82773230057582      -2.26003356997819      -0.15633394157619
H        -0.47298381250277      -0.68031944330746      -1.91357480506778
H        -1.88953602551334       0.38045430557609      -1.69618730327174
H        -2.22898542769574       1.52890157434072       0.44046823149991
H        -1.06903962092329       1.22721239211828       1.79455455290108
H        -0.10090713266525      -1.43980248564735       0.97265867983885
H         0.79169563836811      -0.01076379906952       1.51838747252493
H        -0.73708833360420       2.17987136893327      -1.06137887054460
H         0.70636857027034       1.23328939206979      -1.49137446945922
H        -1.46023684598423      -2.34890898076691      -0.33543715531776
H        -2.58418296879670      -1.97970714996898      -1.64617390265439
H        -3.23753891157202       0.05308200289640       2.10971920504254
H        -1.88449853042152      -1.06824759105569       2.05546861424467
H        -3.87176145734567      -0.44025587617019      -0.21730066165264
H        -3.71511017820718      -1.98550458091906       0.63976045883411
H         2.19024433794213      -0.10345894443188      -0.58369191767384
H         1.31910035894437      -1.56839895580656      -1.10805350440993
H         0.32415038493335       2.68063809007900       1.21355233885652
H         1.76080580998044       1.81494922836559       0.72015301743753
H         2.05817761131409      -2.72423774155977       1.00349767707023
H         2.88474759567179      -1.23759318193404       1.50832110232410
H         2.02882487794370       4.23758319758838       0.39905118940829
H         2.09100130239870       3.44744132404749      -1.19620149540766
H         0.61860135980159       4.31803357779653      -0.68545634890710
H         4.38573978413947      -1.38065148481653      -0.51563361012702
H         3.56116123287950      -2.87558042957564      -1.03127401405827
H         4.50892953485788      -2.84883227848972       0.47647623070560
B         1.67169253820004       1.49304397967177       3.56654454883454
F         2.49158998083729       0.75924871032287       2.62955496015096
F         1.75681508858166       2.87256378112314       3.26899170252419
F         2.05266723408875       1.20509970087645       4.87664984115754
F         0.29767471854100       1.05908076728185       3.34366573857988
