52
C14H18F18NP optimized with ForceField in AMS.
N         0.00368645311542       0.00420719647973       0.01367953357727
C         0.91292281973347      -0.83383387806876      -0.82656714675439
C         0.91586625547500       0.83748759557409       0.85641527585752
C         2.32210956619383      -0.29302766260130      -0.68231023699498
C         2.32744029585701       0.30724411202482       0.69507840777777
C        -0.83667749844352      -0.86640830167060       0.89812371322922
C        -0.82821962646157       0.88117531304205      -0.87240676335639
C        -1.83075318116539      -1.77070731191221       0.14680526463110
C        -1.82533430448859       1.78249573855596      -0.12105531749701
H         0.62354893980356      -0.85681105436355      -1.90210375045872
H         0.94108240379072      -1.89468944451618      -0.48575127138135
H         0.63563964938918       0.84571674733055       1.93463587029342
H         0.93474446422892       1.90304541341130       0.52977742110095
H         2.50212494027372       0.50036129965660      -1.44169264036810
H         3.08824776464668      -1.09212478573582      -0.78462922825998
H         2.52228322138654      -0.48469988715612       1.45230235698378
H         3.08855106362824       1.11218914693300       0.78905395192935
H        -0.18108971663927      -1.52029895973244       1.51846141026937
H        -1.41398225080133      -0.25123614085899       1.62314486992653
H        -0.16661012787676       1.53684100974004      -1.48428482286210
H        -1.40097403502905       0.27214851964993      -1.60621567166927
H        -2.28126763021963      -2.48855064285741       0.86408937970615
H        -2.65754149091929      -1.17682628075142      -0.29296805755789
H        -1.33341737083864      -2.35341770395515      -0.65476732070043
H        -2.22874144963290       2.54354321055468      -0.82105094354305
H        -2.68213726469289       1.19119462858785       0.26183852332813
H        -1.34581176530682       2.31662991244971       0.72379471090372
P        -7.80312002885607       0.55465778894493      -3.72603417370173
F        -7.60569121475314       1.53057931485752      -5.13123223629603
F        -8.02043944801643       1.52256417111333      -2.31596774480993
F        -7.91615779108676      -0.58607775252411      -5.00958024728609
C        -9.60834251132027       1.22491070517008      -3.95390407097763
C        -5.96107497770774       1.15573947408344      -3.72921991143858
C        -7.69388391412012      -1.11690605530676      -2.76345259547237
C       -10.33679497706676       0.88086379281536      -5.28081947958999
C        -5.09414800821524       0.79239427249324      -2.50468726234768
C        -8.98921238096007      -1.93739140526654      -2.61583751197809
F        -9.58804632708372       2.61161485590027      -3.86931566000300
F       -10.40473880077685       0.77585641184929      -2.91925191632789
F        -5.92636485453566       2.54509252592192      -3.81146008426155
F        -5.31912037776581       0.63759120589285      -4.84579214876761
F        -7.26794169065888      -0.85571536013139      -1.47376038301523
F        -6.74398268726939      -1.93598521950219      -3.35743576446667
F       -11.63353039540588       1.35942857132723      -5.21129642785281
F       -10.40443285666377      -0.47801096314460      -5.50155147269089
F        -9.72854948008624       1.48232420888431      -6.36767787289230
F        -3.87627316701554       1.43739270331264      -2.62307310350316
F        -5.68034684470849       1.21161782683038      -1.32495686807051
F        -4.83352165282681      -0.56196297729263      -2.44513181214483
F        -9.86718169231610      -1.32143317344002      -1.74512818469960
F        -8.67253258879866      -3.17239006326266      -2.07695815147412
F        -9.60525282469223      -2.15525706963626      -3.82812284624233
