33
C9H15F3N2O3S optimized with ADF in AMS.
N         0.81490017718796      -0.97779832155343      -1.09134662081691
N         2.59471195345107       0.23651218936737      -0.85788103975186
C        -0.31946886728431      -1.84841892404853      -0.75699013806322
C        -1.59133966213816      -1.04479667471250      -0.50005020547932
C         1.69638443010923      -0.50875511342235      -0.19990396653175
C         1.15606059429104      -0.52291700903241      -2.34677914044635
C         3.74042235363184       0.89918945034751      -0.21744896737949
C         2.27914967672600       0.24104206127668      -2.20068779104977
C        -1.47164908381124      -0.09710404801120       0.68996219353651
C         3.30057380055313       2.11512604804587       0.58243626758988
H        -0.00483989730900      -2.41863381058716       0.13149278356028
H        -0.43594738447101      -2.55115409124331      -1.59459838219569
H        -1.87011829274320      -0.48526711449931      -1.41067490250019
H        -2.39653818095246      -1.77677383486122      -0.31917787601240
H         1.71618769864317      -0.78697703027566       0.85010016152215
H         0.59226464786460      -0.80119199846917      -3.22778811142817
H         4.21797129659990       0.13484935322732       0.41469358682286
H         4.43233298031112       1.17402487689318      -1.02618349507194
H         2.88766533949709       0.76057979714996      -2.92986140895946
H        -0.71990295271218       0.68627003424373       0.50598235122456
H        -1.17982600918997      -0.64386419518822       1.60005098500763
H        -2.42875979896860       0.40853258120131       0.88583438236203
H         2.76328373195202       2.83620852825710      -0.05132597954998
H         4.18258663547962       2.61472423239250       1.00922782259587
H         2.64681763832909       1.81907516820687       1.41578495524941
S         2.90680929771887      -3.08447791650840       1.52920105338140
O         1.46256102251173      -2.74168018439248       1.62843737162682
O         3.42510229585347      -3.98552706638913       2.55153400233214
O         3.75127770278934      -1.91713419063092       1.18002882484591
C         2.98160407146768      -4.11568356167238      -0.04511734134911
F         2.48676142418960      -3.42091348655420      -1.12701285319351
F         2.24612639947154      -5.25150520791979       0.06826286023289
F         4.25670974245100      -4.46586852313763      -0.34688635981121
