36
C10H16F2N2O4S2 optimized with ForceField in AMS.
N         1.74346014207245      -0.02600638358819      -0.52145903007848
C        -0.63310571352287      -0.01861024969527       0.09692869142588
C        -2.07320944874712      -0.03406829733166      -0.42581768915056
C         0.37597046255046      -0.06306284960287      -1.05310736045908
C        -3.07324030629642       0.02052263990976       0.73442971646193
C        -4.51124052312582       0.01778307020091       0.22551695975303
C         2.37495518813609      -1.19333104588267      -0.18874007700869
C         2.35654510281514       1.17894337205653      -0.31087103446911
C         3.65015417824396      -1.17168363008739       0.38141246397058
C         3.63083491034600       1.23615014528175       0.25816376548136
C         4.27745021629365       0.05223399956765       0.60951220003259
H        -0.46838067413282      -0.89547917858811       0.76068105797952
H        -0.46523132176862       0.90795283733361       0.68899098518477
H        -2.24145131908489      -0.96215445538609      -1.01551429174039
H        -2.23292410710097       0.84258153090781      -1.09200474171428
H         0.22218434272715      -0.98399712541436      -1.65958594661245
H         0.20267985355114       0.80409241236488      -1.72679590450503
H        -2.90544312511725       0.94379828944552       1.33097590279122
H        -2.92483589681077      -0.85894476620536       1.39840541922794
H        -4.69309256066455       0.90204052304764      -0.42181295863338
H        -5.20967781668352       0.05939499287400       1.08780242640961
H        -4.71430051894097      -0.90899659136034      -0.35216231630332
H         1.88815300273723      -2.14803252017173      -0.34985787149783
H         1.85478295305327       2.10438414546021      -0.56809387954542
H         4.14281889790438      -2.09633738576469       0.65285170410530
H         4.10768194167581       2.19168123029404       0.43391148038375
H         5.26007493466022       0.08346212601974       1.06173889487011
N        -0.36762374441670       1.37264631837614      -6.39918169944874
S        -1.78295022363140       0.71119004166563      -5.91235280100074
S         1.05198428538722       0.94932253692223      -5.70461058974834
F        -2.23223403834533       1.38612699437684      -4.44778349787481
F         1.49234010677548      -0.57631544746254      -6.23354391451810
O        -2.84622426705315       0.98977886087716      -6.93638826168799
O        -1.62397729846543      -0.77296921504961      -5.73608779804988
O         0.90343099368238       0.92041903462380      -4.21070046239790
O         2.11585334149657       1.93794356528501      -6.08805947133307
