37
C11H18F6NP optimized with ForceField in AMS.
N         2.36167738171040       0.03486093455897      -0.53614467929320
C        -1.45392114659400       0.05603780419694      -0.68576980972870
C        -0.05051697160834       0.02461967956504      -0.07084818341025
C        -2.52784369023686      -0.00920140857624       0.40585593891455
C         1.03113786193326       0.08654062402832      -1.15250931808917
C        -3.93447200802950       0.01118403683668      -0.20188546538396
C        -5.00274640778621      -0.05677949781224       0.88556571786095
C         2.96282751168401      -1.17490970958328      -0.32037045737099
C         2.97977186601290       1.19460826059614      -0.15561844215293
C         4.22221331975117      -1.24349310208005       0.27902431945897
C         4.23753657562735       1.16121164263705       0.45133821820856
C         4.86158731083563      -0.06670414262496       0.66542069954018
H        -1.57456198590614      -0.80968979077080      -1.37395638801440
H        -1.57967171745889       0.99324205801128      -1.27179459599482
H         0.07323496935901       0.89007681970309       0.61675976681786
H         0.07607968511643      -0.91146234316375       0.51651141884219
H        -2.39598349236196      -0.94323146812558       0.99577277366586
H        -2.40977579107869       0.86026493038289       1.08988135715408
H         0.91820782942652       1.02186244608773      -1.74558265333969
H         0.90369307023249      -0.76177065975462      -1.86214618555273
H        -4.07645395049274       0.94478208066677      -0.78887392706685
H        -4.06073569955024      -0.85673966943422      -0.88534195015145
H        -4.91410781076940       0.81517477536993       1.56843945539209
H        -6.01014889306444      -0.04219247305135       0.41914811966126
H        -4.89631401361528      -0.99393277546180       1.47289759554232
H         2.46647871182634      -2.09486677843001      -0.60636918820147
H         2.49794933902254       2.15232838016660      -0.31420839002025
H         4.69434870367228      -2.20262241492865       0.44727092649628
H         4.72132532075600       2.08032094279089       0.75617037866800
H         5.83388691528913      -0.10706738269922       1.13950457127595
P         4.05005314661186      -1.86040360077887       4.34772594351904
F         3.10256785681150      -1.25206792831241       5.64544237233437
F         5.49449589339438      -1.55091481211532       5.22502370075853
F         3.86031239783374      -3.40320132913016       5.07987290265069
F         5.04539151010426      -2.55326737585685       3.13126284546529
F         2.67783344411975      -2.12595676094988       3.34771603150380
F         4.14797119002171      -0.27483392595808       3.69422465924005
