43
C13H28ClN optimized with ADF in AMS.
N        -1.28022961453059       0.33402521956800      -0.11687648761821
C        -2.55997117296311       0.44195178974534      -0.91700940486916
C        -0.86241652711783      -1.12868762739702      -0.03056547278903
C        -0.21726992760065       1.11566882650770      -0.87620668273638
C        -1.46368940354555       0.88404063706600       1.29654943325490
C        -3.68435580751590      -0.43309589049515      -0.38541663064146
C        -1.96384697123514      -2.00883242948187       0.52865479179670
C        -3.25303211259747      -1.89533106204652      -0.28002205992185
C         1.16012033276924       1.15449664862880      -0.22219649716310
C        -1.56705697824090       2.39195400193335       1.37350750987096
C         2.16742354715670       0.18561125166100      -0.84498126002284
C         3.47637538963424       0.15537227987812      -0.06276282777695
C         4.49127439142011      -0.82108025839693      -0.64951535771759
C         5.78662691240990      -0.86870432095998       0.15610034118130
H        -2.29669247457907       0.13810118573361      -1.94344264997081
H        -2.84299641084321       1.50440437262698      -0.93480212241302
H         0.02545193870533      -1.16431671570844       0.63973897083241
H        -0.60781730937723      -1.42344854991875      -1.06232267846777
H        -0.64110566111075       2.12111046027927      -1.01012700328638
H        -0.17043843525122       0.64157302197051      -1.87057737110668
H        -2.37671959774920       0.41617449519485       1.68244359274545
H        -0.60975739432020       0.48502512565122       1.89327080774788
H        -4.53692424467845      -0.32119593101669      -1.07634730518987
H        -4.02844609034264      -0.06296866309345       0.59474933743902
H        -2.12608798106616      -1.76748521820743       1.59253784133212
H        -1.57831818718175      -3.04148893944145       0.51450744610560
H        -4.05793563641916      -2.49668122650688       0.17277623623202
H        -3.08179126987083      -2.29564776760733      -1.29695833074632
H         1.54748398566450       2.18551625708233      -0.30326886849765
H         1.09682522051893       0.91335765875667       0.85727264538251
H        -0.61224825540412       2.88522248166935       1.14333748860202
H        -2.35709863797332       2.81467335973808       0.73309028520593
H        -1.81859265889641       2.64794996262618       2.41473378775341
H         2.35218523381157       0.45531619886127      -1.90360370256924
H         1.74416642239435      -0.83352930663199      -0.84007422303210
H         3.23620867909961      -0.13364217156009       0.97752513891760
H         3.91631142102026       1.17091435257140      -0.02833017099832
H         4.03797913831572      -1.82937782575644      -0.67668290728758
H         4.71073940408321      -0.54528992435496      -1.69847248755156
H         5.58254085919652      -1.17319436071100       1.19476423655240
H         6.50711732538744      -1.58103518620646      -0.27514888350619
H         6.26606438613362       0.12334760642522       0.18475787697794
Cl        1.07371125838960      -0.82039000537641       2.60826175144989
