48
C12H22F6N2O4S2 optimized with ADF in AMS.
N         0.71351128183840       0.57069652936703       0.62483937786738
C         0.15866066196759       1.93073457679463       0.22055717062648
C        -0.24796803792803      -0.51652857743927       0.19886565745489
C         2.04083050966799       0.41140253299915      -0.11510591135642
C        -1.25085431591560       2.17508363511350       0.72902986000597
C        -1.65400169485027      -0.30178757977443       0.73600629297265
C        -2.20482568370366       1.05803568768057       0.30980962780667
C         0.94230724030789       0.52505324209374       2.10542249263648
C         2.87919904235119      -0.79165712303606       0.26950841902871
C         4.10834657801699      -0.85845008983990      -0.64597439293455
C         5.07362607601714      -1.96320753408655      -0.22968616471192
H         0.17626888597706       1.93347233378459      -0.88148159743815
H         0.88247959469336       2.67323723873068       0.58988541002927
H         0.17839668609898      -1.47130256827870       0.53512020021056
H        -0.25115023359846      -0.50208403988808      -0.90289865945949
H         2.59518741936104       1.34010226243070       0.08805013038093
H         1.77214098968318       0.38441494862239      -1.18388611176051
H        -1.57629999359985       3.14403072491500       0.31589705648171
H        -1.25058915725137       2.29848925434653       1.82496555172717
H        -1.66482365619348      -0.39820089639483       1.83486375030480
H        -2.28250569813897      -1.12041609826150       0.34786453811968
H        -3.20425725966985       1.22056725124880       0.74368401279332
H        -2.32328535895853       1.07199075443719      -0.78965102325368
H         0.02387836065539       0.81001236411352       2.62497643579052
H         1.22969015113767      -0.49547422700778       2.38303541252344
H         1.75847388690547       1.21263150123057       2.34940908666768
H         2.31194292837571      -1.73479388446263       0.18087068946396
H         3.23010079574480      -0.68162815875418       1.30692273760579
H         4.63146490784730       0.11183987860398      -0.61141443192883
H         3.78220303483254      -1.01368388243503      -1.69064718679333
H         4.58761169823464      -2.95219092381606      -0.25483092836321
H         5.44573436439134      -1.78551876184860       0.78987321022673
H         5.94441738762156      -1.99405331601308      -0.90082865260114
N         5.29808229189810       3.50373045890527       1.69905866172993
S         3.94649424575551       2.84112806002256       2.17474651544871
S         6.75931288916804       2.99232073820483       2.21932438157754
C         3.48474666479699       3.58357457070789       3.85847433494471
C         7.12035419907913       1.47548398486732       1.13198806468203
O         2.86297501872725       3.34190025435716       1.31190611629187
O         3.95483311683123       1.39477465248424       2.44423422861503
O         6.78267311720067       2.47743420137615       3.58151115386075
O         7.72694077340546       3.97445695435727       1.76279022406818
F         2.15922875099634       3.31948755010335       4.09023431365430
F         3.65521149395756       4.92193869797722       3.87056185673448
F         4.19527236369469       3.03739633487160       4.86067875254494
F         8.45992187999502       1.30330909815930       1.04362596912494
F         6.62901932002509       1.63431966698524      -0.12569867458016
F         6.58333736964970       0.35010129584471       1.65723888367919
