37
C11H24ClN optimized with DFTB in AMS.
N        -0.78925388643144      -0.41993853579158       0.18549367825834
C        -1.15881420812179      -1.52611953896296      -0.76036177393822
C        -1.84174777359722      -0.51285228971424       1.24652377384373
C         0.56421330454179      -0.65539174234437       0.78571586343696
C        -2.68027768116913      -1.50093437168364      -0.82008151462964
C        -3.13138439863263      -0.87599363876626       0.51080053529970
C        -0.87855764097836       0.89740482125277      -0.53736054612021
C         1.70789651797726      -0.62347757502060      -0.22501299227536
C        -0.40997109959148       2.10575978398613       0.26676969103660
C         3.02873355515766      -0.94522715004922       0.48108866204176
C        -0.67702753055916       3.37192867011681      -0.54830243082309
C         4.18914639703166      -0.91560739746907      -0.51167183042732
H        -0.67806630763073      -1.34657368510778      -1.72970447235988
H        -0.79812964210714      -2.46241074639943      -0.32816527736596
H        -1.54972187925979      -1.30858561948184       1.93584303914344
H        -1.90242858016327       0.42753734804613       1.79355765247963
H         0.52389781720135      -1.63668793335958       1.26841793471025
H         0.70998108787641       0.09913226033178       1.56328430944854
H        -3.02395152343597      -0.90105161809498      -1.66479451678230
H        -3.07042038747150      -2.51250147108091      -0.94181900216740
H        -3.71535917581888      -1.57838142948096       1.10825424103876
H        -3.74345725442963       0.01130885648614       0.33774357865577
H        -0.28434013261106       0.79433411478459      -1.45453769514656
H        -1.92446968321212       1.02639134662729      -0.82282553277542
H         1.52948352508453      -1.35131831480738      -1.01836505542036
H         1.77827012950788       0.35938501604065      -0.69391561248129
H        -0.93456387226604       2.17340500692389       1.22547816963624
H         0.66152354308260       2.03865890419662       0.47086907011995
H         3.20740632740604      -0.21474624391843       1.27835933798110
H         2.96602618162222      -1.93670532126229       0.94341991303190
H        -0.15840438852026       3.32094677442832      -1.50539115326161
H        -1.74482770146974       3.48962328201961      -0.73542962308872
H        -0.31953378577358       4.24417337912509      -0.00207026170498
H         5.12333661289292      -1.14773513075880      -0.00020037194459
H         4.03089842180705      -1.64895489543448      -1.30247042733372
H         4.27495691908937       0.07137782338715      -0.96666045931933
Cl        0.46416380597218      -0.25490170526417      -3.21520014959670
