58
C18H37NO2 optimized with ADF in AMS.
N         0.22922183836265       2.16155458026684       0.17435145972988
C        -0.27923235264981       3.07600995431287      -0.92821274329529
C         0.58951192897435       3.12278266891072       1.28086197497637
C        -0.84556714334978       1.20539185969519       0.63367250797539
C         1.45764790313100       1.43522871442702      -0.35576843258846
C         0.63720220693450       4.29809797794950      -0.86286296844021
C         1.22269162977596       4.32180501058329       0.57536509598182
C        -1.30016025536681       0.23621464233809      -0.43762263379876
C         2.08956257875915       0.42907824908177       0.58657506583205
C        -2.45174603903901      -0.63448587492023       0.05906089045980
C         3.22133386899918      -0.28659768901001      -0.16243372535945
C        -2.89248517088448      -1.63371309310675      -1.00989877728420
C         3.86916808465874      -1.39129494709706       0.66682604748950
C        -4.05540332527966      -2.51698221182618      -0.56677424659907
C         4.94097151569930      -2.16066224410751      -0.10374444334528
C        -4.47985015946877      -3.51455418707852      -1.64148423181649
C         5.59669500989649      -3.25579798984944       0.73288347898604
H        -0.25176620290636       2.50515210570173      -1.88536169469095
H        -1.31397803625223       3.33391165183070      -0.65206895607427
H        -0.35571054068300       3.39933459378987       1.77236053973168
H         1.23597595913875       2.61691970791683       2.00847904993756
H        -0.44783898719947       0.68248698504009       1.51772267705083
H        -1.67813644681242       1.84602394303171       0.97119332570025
H         1.14233916006973       0.90294710958908      -1.27968652437555
H         2.17557955923847       2.22212445928297      -0.63027766733566
H         1.43730222190632       4.22279800977491      -1.61300334159616
H         0.06551429840217       5.20873657660864      -1.08986847539768
H         0.97891664248512       5.24884608756398       1.11417682463151
H         2.31891901462583       4.23399378196016       0.55683902279266
H        -1.60921979544561       0.78932101759033      -1.33982180595376
H        -0.46283143204845      -0.39447967573177      -0.78064251869258
H         2.47984835650804       0.88812452160619       1.51374532160730
H         1.34729992601263      -0.33297594504868       0.87838044484921
H        -2.15004586291925      -1.18441121220683       0.97124872008894
H        -3.31342224815339      -0.00157245556077       0.34778082803548
H         3.99215227104069       0.44776097782300      -0.46278899356395
H         2.79705528693820      -0.70404911490445      -1.09270305827521
H        -3.17584909823918      -1.08200925488959      -1.92518849286597
H        -2.02976135121400      -2.26412380044549      -1.29284762020847
H         4.31500034815160      -0.96432426755966       1.58647255130676
H         3.08729104266264      -2.10065493957849       0.99894899861232
H        -4.91581611326431      -1.87815405377791      -0.29371865790792
H        -3.77112433040231      -3.06157468043455       0.35253848188636
H         4.48462134548053      -2.60264824908495      -1.00768376052018
H         5.71287562825588      -1.45460081349231      -0.46153082327317
H        -4.79092031630179      -2.99268763988080      -2.56075807083489
H        -5.32198600991920      -4.13710156133129      -1.30212559380496
H        -3.64579213586130      -4.18444802235332      -1.90627137667050
H         4.84875275313265      -3.98897271806017       1.07655569319231
H         6.36107011824533      -3.79929689544955       0.15636220827548
H         6.08334714957593      -2.83216539944373       1.62677118864142
C         0.29636022476747      -0.52695557478894      -4.83161778429256
C         0.37840038694999       0.13470221993811      -3.44997969085007
O        -0.11936270008691       1.29920602689852      -3.33794809913177
O         0.91571927427456      -0.55438352209838      -2.52725444768570
H         1.18852715607984      -1.14299447584268      -5.01609938854341
H        -0.57673015569534      -1.19962975553613      -4.84934829576221
H         0.17226068040919       0.22151666068403      -5.62614252893615
