22
C8H11NO2 optimized with DFTB in AMS.
N        -0.37639785093776      -0.11190261458980       0.31322201355655
C         0.29698280157711       1.06739201629454       0.48631231500765
C         0.31649828656249      -1.33149070212321      -0.01200937671264
C        -1.70342567786823      -0.28246353344633       0.89183543756819
C         1.55547400057237       1.24432027656919       0.02938266199612
C         1.65514967649793      -1.07420336728752      -0.62504447500175
C         2.23313730138379       0.13559871548914      -0.57570788971573
H        -0.27796070108174       1.86973831125426       0.93558089305262
H        -0.32316235065141      -1.94881792418971      -0.66276492908725
H        -1.63768089319023      -0.73778718081366       1.88454480352068
H        -2.18805324887570       0.68987066071370       0.97182627607987
H        -2.29832798172137      -0.92922673093185       0.24353316223524
H         2.04964488228209       2.20071837425079       0.12469077955880
H         2.14657011411754      -1.93782413216063      -1.05568217319392
H         3.21677709341662       0.29428946536831      -1.00389637278287
C         1.14215951170832      -2.89657473743222       3.29914443641838
C         1.11038650654657      -1.79563872922199       2.25858412088945
O         0.43533357126918      -2.20069070231378       1.18128195329823
O         1.62246873161852      -0.72143868773151       2.40447331622119
H         0.13491232513783      -3.27018379738208       3.47250079565234
H         1.75457237093733      -3.71532359813889       2.92396058631623
H         1.56757584179875      -2.51422573387676       4.22361493962265
