32
C8H16F3NO3S optimized with ForceField in AMS.
N         0.16727517668972       0.29420722605650      -0.09517995974822
C        -0.44152189095705      -1.01019386531634      -0.47547218703781
C        -0.92789655458064       1.07681465916449       0.55301263681143
C        -1.94740639292479      -0.85287060219462      -0.41968810627088
C        -2.15807379232042       0.18858480856489       0.64631209243098
C         1.29052884560950       0.11161690241742       0.87527826839596
C         0.63660507606441       1.01769808516333      -1.30517958935737
C         2.47013925588767      -0.72195152159960       0.34359329180280
H        -0.17244039999390      -1.81539606201829       0.24638069532004
H        -0.12726161731354      -1.35996980977694      -1.48537687999898
H        -1.20551065157349       1.98684510277583      -0.02892255752699
H        -0.66007127636669       1.44354489605468       1.56877249407315
H        -2.45268238229923      -1.80983132643151      -0.16330468092837
H        -2.32553360548293      -0.47855697463451      -1.39657709785123
H        -3.09693310570047       0.75999644396779       0.47829497163156
H        -2.19405454804279      -0.29961442402381       1.64583737504092
H         1.69013072063514       1.10303555896404       1.18884893226716
H         0.91500317285962      -0.38441646197302       1.80008089946290
H         1.37136887300297       0.41811402268715      -1.88309247149254
H        -0.21102123877017       1.23284746536309      -1.99440565046069
H         1.11206266988434       1.98524721339327      -1.02801417451941
H         3.18076152078130      -0.91257574970915       1.17529876289969
H         2.13743695692665      -1.70360425568881      -0.05044673094771
H         3.02335087607721      -0.17361838518739      -0.44561093523117
S        -1.01805576874836       3.54425967771856       6.04052941835947
O        -0.62652366547077       4.95324652853890       6.50916225586077
O        -2.37485129036114       3.31421538502281       6.72215432603868
O        -0.07084752587215       2.63528145657814       6.83738904026403
C        -1.00430064838954       3.28884202959500       4.24409686593378
F         0.27208940224400       3.49309680032147       3.75608375692572
F        -1.87350905189650       4.17839716418746       3.64269371783437
F        -1.40323887579798       1.99672713751918       3.96440934611796
