32
C8H16F3NO3S optimized with ForceField in AMS.
N         0.83167427485471       0.00412518625653      -0.04268973228612
C         0.07209332652086       1.23455650605723      -0.40998545216927
C         0.07198132698743      -1.22385788787815      -0.41756141277595
C        -1.35896870038744       1.26113899819762       0.15581393821394
C        -1.35847309979337      -1.25436433202175       0.14879258248351
C        -2.12939575006461       0.00444136162288      -0.24309444932911
C         1.16846766499532       0.00092697923616       1.40406240467718
C         2.10910286072660       0.00580381926987      -0.79785815325131
H        -0.00535676440443       1.32181026527745      -1.51872680734097
H         0.60742505653884       2.14480852479324      -0.05535014103664
H         0.60778807826234      -2.13636352105921      -0.06980937893078
H        -0.00630968371987      -1.30376252735347      -1.52684271086689
H        -1.88965960293479       2.15069750085644      -0.24691094791465
H        -1.34452649014748       1.36439686887920       1.26049541274761
H        -1.34228955629954      -1.36530472261987       1.25308683025432
H        -1.88914697425058      -2.14137824759427      -0.25971064709711
H        -3.11907031232286       0.00286497832741       0.26272678343816
H        -2.30479450016567       0.00759495916765      -1.34154834535301
H         0.26719396967112       0.00602025930653       2.04794045308803
H         1.76217986707628      -0.90099586201521       1.67396450192925
H         1.77059993443667       0.89705139113763       1.67194537001570
H         1.93001701763774       0.00824689864867      -1.89667523482425
H         2.71859246359545       0.90549361201227      -0.55481683847561
H         2.71825541067858      -0.89520618450928      -0.55873207183568
S         1.15715496461498       2.81025191496655       4.87113293683011
O         2.16946048914949       1.91641988622469       4.14051752249261
O         1.97655037238950       3.37583553352483       6.04053139082869
O         0.22887601122783       1.79649459799282       5.55627547616753
C         0.32486289125489       4.05061066552458       3.83862492241619
F        -0.39500482485597       3.41687950469730       2.84406828385937
F         1.26771567109714       4.88189346485661       3.26456128551065
F        -0.53335580246916       4.80039429721708       4.62045907863452
