48
C14H28F3NO2 optimized with DFTB in AMS.
N         0.23434098553828       0.07611425411695       0.06721156185646
C        -0.54295523754683       0.72693123016862       1.18994994116869
C        -0.66600303419969      -0.66982809174183      -0.87394122211714
C         1.20218203234195      -0.90284145420947       0.68179891275218
C         0.95797035615163       1.14672996400368      -0.70348991352832
C        -1.57944083029173      -0.16547994411286       1.87113479308495
C        -1.76135055936697       0.16728252026630      -1.53531438835986
C         2.15068168711802      -1.60920033905399      -0.28171953229917
C         2.00874504290673       1.92535639475281       0.08705944015453
C        -2.08684467431034       0.54459241555939       3.12627792480014
C        -2.68977159502329      -0.75335353020711      -2.32761441758847
C         3.13808138600162      -2.43754523517887       0.54309084153898
C         2.66324927166381       2.95621305413442      -0.83157342241976
H        -1.02375682879564       1.61838436487912       0.77941577718231
H         0.19483680525448       1.03246491207843       1.93437773757527
H        -1.11275561607893      -1.48829062033571      -0.30505298570324
H        -0.03063115618488      -1.10173751553755      -1.65062636952451
H         0.60767493907799      -1.63933396811749       1.22368504239016
H         1.77820207859434      -0.34825027786640       1.42024352667830
H         0.19875747059797       1.84287742371675      -1.06801803472936
H         1.42045929278360       0.66538840105918      -1.56926860721692
H        -2.41891742653184      -0.37438637940425       1.20149738921966
H        -1.12637258321185      -1.11132078062826       2.17269706219919
H        -2.34563468246337       0.70638324744702      -0.78694354410510
H        -1.32153845279601       0.90082199667950      -2.21587157216743
H         1.60405166303050      -2.26881975554500      -0.96221531072888
H         2.70957698612965      -0.88699748170972      -0.88252012432818
H         1.54443726032675       2.43997719035469       0.92952914674032
H         2.77747938292434       1.25823920999998       0.47973304559314
H        -2.86879537869067      -0.05396237123028       3.59207871935247
H        -1.26810662906684       0.66310713483138       3.83512338775022
H        -2.49399195334743       1.52652393453632       2.88085437053281
H        -3.46170047044700      -0.16121545053043      -2.81754993069450
H        -2.13144194383675      -1.29765732581163      -3.08983272990794
H        -3.17082519641327      -1.47367740866362      -1.66550423331873
H         3.83403317886225      -2.94976878566921      -0.12026964546502
H         3.70242597455628      -1.79163379640240       1.21544609650302
H         2.60812046049041      -3.18106031334501       1.13832651801995
H         3.40878808420958       3.51770001391679      -0.27032615545114
H         3.15630679928511       2.46647052006158      -1.67237062220989
H         1.92074514699642       3.65452768056551      -1.22009215377468
C         1.74593092503912      -0.28688767083568       4.26204129442797
O         0.83260559790639      -0.52765360013984       3.46523782437643
O         2.05640009953926      -0.69994315104204       5.35214820042758
C         2.75344477282399       0.86313618038678       3.63063889892383
F         3.63617106655170       1.42032516074169       4.45883106146737
F         2.03024552583422       1.88328681664007       3.08448948474335
F         3.47018737726691       0.35503497312169       2.58158279227895
