59
C17H21F18N2P optimized with DFTB in AMS.
N        -0.31161806059171      -1.15654148239683      -0.82190618490401
N         1.04226234197094      -1.63019446917693       0.78669973975926
C        -1.15931494860493      -0.39992538490023      -1.74024343110176
C         1.96169727533834      -1.47689076004943       1.91183805867004
C        -0.34346207723120       0.22938764621991      -2.87400246241379
C         3.34047783663480      -0.99378515593003       1.44766425073053
C         0.35198554409082      -0.64405591801127       0.21428878164327
C        -0.02074577426155      -2.48737157504777      -0.92682449008174
C         0.83298776667287      -2.78636057899063       0.08885676477413
C         0.65673864875161       1.27719066557624      -2.37570993126627
C         3.31268870200587       0.43370216534127       0.89253923686713
C         1.17323236535879       2.13330997331406      -3.52952534201200
C         4.72497433500465       0.98314133369240       0.70214580873594
H        -1.90061440263109      -1.09350079441269      -2.14458349242589
H        -1.67258984720484       0.37203450059415      -1.15932128599246
H         1.51666385105299      -0.76554541748784       2.61394595052619
H         2.04491779743062      -2.45236702075827       2.39698711843463
H        -1.06254604103710       0.69688465837308      -3.55364021768430
H         0.18216058588121      -0.55394675281007      -3.42413695156681
H         3.72899140228342      -1.67939365340244       0.69175354979851
H         3.99974748770876      -1.03891675156139       2.31958193062453
H         0.30662531159422       0.37627438086898       0.55161540006119
H        -0.41988268274390      -3.10319173378271      -1.71330073313015
H         1.31699917672807      -3.71088605882354       0.35005851104605
H         0.17396787653130       1.91966217942643      -1.62891555378434
H         1.49954613706994       0.77248743154451      -1.89459641989310
H         2.79721156018092       0.43557670857031      -0.07198499302106
H         2.75470975517131       1.08243108865348       1.57878140457815
H         0.35465852995459       2.68498464809441      -3.99423701134676
H         1.64680765250615       1.50616152094147      -4.28276220957565
H         1.90972516675514       2.84435007343860      -3.15764125698017
H         5.28761212069949       0.35126263613092       0.01751440279442
H         5.25291262379266       1.02605303042103       1.65568865352081
H         4.67367338111771       1.98721287537954       0.28252310992926
P         4.40084322678281      -0.87873718947933      -3.49868511004241
F         3.15161476086712      -0.22128108252850      -4.39807168452599
F         4.70450900814523      -2.03069178894218      -4.66559344420425
F         4.08747973066353       0.26058200644468      -2.27827634127258
C         5.53575970611710       0.38274585870946      -4.47037677039754
C         2.97683795441598      -2.07861880705109      -2.73104625565721
C         5.76329757193470      -1.70587135657915      -2.26646715270937
C         5.42053156945898       1.89462363395846      -4.13610457425094
C         3.14822171372326      -3.60786502572426      -2.47980988207244
C         7.16454048410912      -1.14925927512341      -1.88578765199154
F         5.25460882510973       0.26910908175209      -5.77844562972091
F         6.83028182306323       0.04579745103543      -4.31782903150399
F         1.88192721935054      -2.02154978935659      -3.52374737327733
F         2.57050101857911      -1.57975040399827      -1.53203117905893
F         5.96262896577031      -2.98037131247767      -2.64868789520328
F         5.10558238449606      -1.76420619210652      -1.07447483970219
F         6.16986014333543       2.61208627946070      -4.97414970550056
F         5.82877253706026       2.16170225091823      -2.89827200395299
F         4.16195172028803       2.31950214015175      -4.25505593275220
F         1.91456883190378      -4.14734299081223      -2.33702660449497
F         3.74185191916448      -4.24435672507346      -3.47165223961786
F         3.79034477774153      -3.87329768205425      -1.34466642626091
F         8.09038226417914      -1.46958738192517      -2.77766077336230
F         7.54244732953448      -1.66481157248316      -0.71057810154721
F         7.13754919262523       0.17544101214573      -1.74275504613391
