38
C12H18F3NO3S optimized with DFTB in AMS.
N         2.25339199914986       0.42473478916323      -0.53876955037497
C        -1.54172916513407       0.21589094281337      -0.69942672754812
C        -0.14172809263734       0.16572552968631      -0.08080789870549
C        -2.61956682663262      -0.07602280192853       0.34871867020787
C         0.91751243634941       0.46271666566265      -1.14167133720336
C        -4.02018077297165      -0.02791771631218      -0.27016736257348
C        -5.09905226095252      -0.31805981372744       0.77158476415353
C         3.02758084846111      -0.65538260112288      -0.71235482134085
C         2.71410536929223       1.52065880149407       0.08128882342430
C         4.30897599712065      -0.68473070137279      -0.20352667515869
C         3.98772210173349       1.53915883139397       0.61101641888868
C         4.80146797980417       0.42379931573087       0.47172889614959
H        -1.60687099281072      -0.51918942811677      -1.50828281389235
H        -1.70998235235175       1.20674489480108      -1.13363591496133
H        -0.06433570316425       0.90165811101406       0.72612073105836
H         0.04245422089738      -0.82476490421409       0.34827505723420
H        -2.44525006414713      -1.06603839313166       0.78437338942445
H        -2.55058436297539       0.66075715522365       1.15655223494891
H         0.78536695172034       1.45814637295656      -1.57374764630637
H         0.89258171605590      -0.27306751389250      -1.94747809879617
H        -4.19095701239160       0.96221849162507      -0.70574754263871
H        -4.08592272144629      -0.76448462429014      -1.07794795757423
H        -5.06269259098078       0.41854519974859       1.57545897020488
H        -6.08508024121170      -0.27835612111875       0.30848550458639
H        -4.95742962139089      -1.30993892656452       1.20319726936854
H         2.61113755545099      -1.47044208311355      -1.28995729987643
H         2.05485555327356       2.37787772560336       0.11866822089801
H         4.92541070899450      -1.55853019975182      -0.36923954372407
H         4.34753995342341       2.43832706604858       1.09375527724718
H         5.81444815684013       0.42962326792662       0.85444817277251
S         3.49821995556739       1.55701283814706      -2.99607682447258
O         2.80895392591581       0.30516460509614      -3.28976939289212
O         4.79124096346563       1.38867646290445      -2.36040651198628
O         2.64565171645612       2.55690080101375      -2.35603648004729
C         3.86493232011120       2.28011513357145      -4.65753791432650
F         2.74089973429460       2.46420319821359      -5.34200317024084
F         4.65194335633763       1.47101385277862      -5.35681278536659
F         4.47484995648318       3.45266187464056      -4.53270745026055
