37
C9H13F6N3O4S2 optimized with ForceField in AMS.
N         1.11132062449040       0.37395657196049      -0.37708902818102
N        -1.11233876895741       0.37072844440468      -0.36924002825349
C        -0.00124431803026      -0.23550317752945      -0.83113832316351
C         2.49391018274023      -0.01738278079180      -0.63901584881258
C        -2.49588109508545      -0.01911080379892      -0.62880205744568
C         0.69078317106523       1.40069948604728       0.38949947120134
C        -0.68924330588107       1.39905384787390       0.39393051478208
C         3.09305166342048      -0.69090880011228       0.58919220713261
C        -3.09339563293903      -0.69991570029710       0.59674265006776
H        -0.00221775389530      -1.11406550552976      -1.46456084119184
H         2.53274347870238      -0.72755101515209      -1.49383238051619
H         3.09255649069966       0.87954746321684      -0.90797963839608
H        -3.09470325621611       0.87979284878368      -0.89089965393699
H        -2.53784520214623      -0.72380159517775      -1.48786713569122
H         1.33746774103829       2.09822362006883       0.90604473928613
H        -1.33406791979992       2.09605683798253       0.91347435305706
H         3.10954658667211       0.01430855425508       1.44645057627772
H         4.13142276213196      -1.01741574268374       0.36938192166474
H         2.48517946493214      -1.57812826016382       0.86352734138283
H        -2.50401042649508      -1.60665707306075       0.85093435171293
H        -4.14043815522503      -1.00133908861610       0.38324069357499
H        -3.08844126080878      -0.00605970651072       1.46370013452569
N         4.54226168886061      -6.14955336436764       1.62591495951548
S         5.67058961482527      -5.19747718707064       2.33992612894010
S         3.45147207474499      -5.57343967047062       0.54535311823621
C         5.02920740892437      -4.58246967672091       3.88415703957532
C         4.01873470499219      -5.92674642278537      -1.10523447115376
O         6.90119639601128      -6.01326741015002       2.61890850316409
O         6.02783362122149      -4.03939321909441       1.44939253998049
O         3.27608494847426      -4.08959788821981       0.70566375099684
O         2.13196610416266      -6.25948031499594       0.75954816754884
F         5.98731973575847      -3.80600187026424       4.50829380188018
F         4.69846345543176      -5.64573117585018       4.70297337715293
F         3.90239945630860      -3.81776105544177       3.64967267543277
F         3.11520987983401      -5.42648658908591      -2.02392375228403
F         4.13145899092138      -7.29404137903868      -1.27224393440505
F         5.25193655181546      -5.33727144981293      -1.30831696025768
