37
C11H23NO2 optimized with ForceField in AMS.
C         2.70288772029574       0.33080975527929       1.56462530443660
C         1.66584828235183       1.27480102930557       0.97323949822206
H         1.37794931105269      -0.88307984409848      -0.86865899027868
H         0.37977516072268      -1.69432105234143       0.38365206291479
H         3.15490487816513      -1.48282839601902       0.44374520727680
H         2.11398146381387      -1.72441253171684       1.90527050581909
H         2.65397323804253       0.35463265491420       2.67554850794848
H         3.72873808095180       0.61526357840732       1.24230648098203
H         1.39549232860068       2.07455708484112       1.70119440737034
H         2.13844764795458       1.78006969403269       0.09776292724778
H        -1.22805995479517      -0.42307709868234       1.50710085410133
C        -0.43573078202790       0.32937741544158       1.70996040803697
H         0.09964951297426      -0.01060342064160       2.62412299619573
H        -0.92599070860279       1.30092026170671       1.94161150257518
C        -0.16918543095486       1.14207763161609      -0.60765852204145
H        -0.28271794803299       2.22710266088926      -0.37810375443481
H         0.48308883455741       1.09993440379590      -1.50978792479114
H        -2.29795217164303       0.75893294421406      -0.15615907559460
H        -3.00188094817603      -2.10024734753798      -2.60426747264249
C        -1.63625018053054      -0.77816252083900      -1.55790138468119
H        -0.82068051744356      -0.93164722968732      -2.29703402584784
H        -1.52454867633389      -1.50939922761560      -0.73396702138252
C        -2.97646130601482      -1.05278566316902      -2.23705861235441
H        -3.11989389864700      -0.37078676067115      -3.10224212096585
N         0.49229787869722       0.46689421072302       0.55667418297430
C         1.07762406910587      -0.84888750730229       0.20350165228458
C         2.33119824609679      -1.04641707462358       1.05040766033116
H        -3.80960346797268      -0.90947609744403      -1.51596236242504
C        -1.58557820808187       0.65021027872511      -1.00044215956618
H        -1.94749550544966       1.34170284080383      -1.79374594657705
C         6.04223248563727       1.79737661953004       4.19871783700622
C         5.10233501753661       2.69930661702455       3.46292908660950
O         4.13604351773858       3.17265364515015       4.03839654120145
O         5.29766956881399       2.96594187257230       2.28805045967030
H         6.50617925370601       2.35032984071558       5.04242401328122
H         5.48556136046559       0.92325889839410       4.59699024974955
H         6.84608492892566       1.43349777900722       3.52358083014779
