44
C14H23F3N2O2 optimized with DFTB in AMS.
N         0.50392649204911       2.01410417493558      -0.58962065227371
N        -1.46654532517926       1.17557894456345      -0.80749913223666
C         1.91842263946749       2.28789640832623      -0.82868201039625
C         2.78329850141686       1.34524260605628       0.01546292489827
C        -2.58692237691516       0.41083488880680      -1.35324529809560
C         2.53832781183899      -0.12098539441680      -0.34740745980730
C        -2.89399630737038      -0.79944527540070      -0.46784507322500
C        -0.29995210446221       1.35265837250841      -1.41970882203668
C        -0.16307891244854       2.25876685587790       0.58117629579735
C        -1.40819076876517       1.73243633644018       0.44156042367506
C         3.38647866723222      -1.07750194916038       0.49409636012313
C        -1.72048701119015      -1.78216214267420      -0.41184244468613
C         3.07478703512412      -2.52418643303102       0.11412619082872
C        -2.03811754259793      -2.97356183318827       0.48708147703612
H         2.11244652051355       3.33183691596212      -0.56732270097983
H         2.10579826345459       2.13794498737514      -1.89465415292243
H         3.82940153816201       1.60772767257924      -0.16673893442280
H         2.57155547069289       1.51505115883071       1.07621617499771
H        -3.45395356908135       1.07506307398580      -1.41569729054941
H        -2.29424408149827       0.08516683780329      -2.35498832773106
H         2.76927218578595      -0.27552219168864      -1.40404875353938
H         1.48061781702129      -0.36098961560292      -0.20338289791125
H        -3.77178623348601      -1.29553688044939      -0.89254074255500
H        -3.15619549648342      -0.46105907002874       0.54048967583856
H        -0.06259270229922       1.02558836963778      -2.41988766486126
H         0.29306948353329       2.78327177543650       1.40234288310168
H        -2.24276324246355       1.71460818631679       1.12015726795724
H         3.17811709144237      -0.91844817754201       1.55854781668236
H         4.44889992032073      -0.87016965478267       0.32549971900877
H        -1.49367065391806      -2.13238183278482      -1.42162419581372
H        -0.82942964660156      -1.27006006508282      -0.03595575528183
H         3.25083438140708      -2.68016204972863      -0.95007253279074
H         2.02876020349722      -2.75219195242298       0.32010646994091
H         3.70459891562403      -3.20831872405869       0.68356496927889
H        -2.24235906142256      -2.64565080126195       1.50824293469548
H        -1.18766483965209      -3.65454532601504       0.50379042613912
H        -2.90937650407200      -3.51459789878696       0.11499339940941
C         0.51926182883912      -1.26665708512409      -3.00848766431527
O        -0.57786089013341      -0.80917803640332      -3.33814360442765
O         0.86962398405426      -1.98229503705081      -2.08336996849358
C         1.73589840399417      -0.67382485665904      -3.90463406864103
F         2.92873482891997      -1.22765363443663      -3.65447799957989
F         1.86737899665528       0.65639916631671      -3.57543744834858
F         1.54032367819365      -0.71165117207739      -5.22480578978673
