37
C11H20F3NO2 optimized with ForceField in AMS.
N        -0.05665788556646       0.25193001556279       0.16208935327587
C        -0.98118671985879       1.24197557358125      -0.47800934023404
C        -0.49457717548252      -1.14344591155819      -0.14979483437700
C         1.30471171213262       0.49670334457862      -0.42157179473201
C        -2.47288694370492       1.00788022059820      -0.17127127806300
C        -1.97018766721177      -1.41623322186213       0.18744219549126
C        -2.88090514416783      -0.41895385166283      -0.51813709736444
C        -0.01362161371430       0.47971597115283       1.63282644896342
C         2.44340811513442      -0.39086897160121       0.13886984414810
C         3.77334568312103      -0.05734164247838      -0.53206985664002
H        -0.87149348068032       1.21122467498893      -1.58722721418990
H        -0.72093968806094       2.27902472069813      -0.16437531339180
H         0.10817686247246      -1.88569314265873       0.41657677564027
H        -0.34602289706590      -1.36104154208108      -1.23272769212336
H         1.59709692988823       1.56110775183759      -0.26349812901176
H         1.27660349840086       0.34522863481623      -1.52591492535515
H        -3.08084798160704       1.71098337778824      -0.78072342126990
H        -2.70563423765789       1.22639967322842       0.89138561972037
H        -2.13431182334339      -1.37491609974063       1.28525355051370
H        -2.23416608431295      -2.44275896317659      -0.14726530261573
H        -3.93322090364647      -0.59127181848018      -0.20524044408647
H        -2.81716291924805      -0.56853866917481      -1.61872055751587
H         0.54635788839454      -0.32455863625738       2.15500335119051
H         0.46293069612447       1.45622964373359       1.87299290241951
H        -1.02165048642972       0.48587184219881       2.08981268797095
H         2.57076448561478      -0.22882184604204       1.22854847599736
H         2.23623821492676      -1.46450832726569      -0.04544224073447
H         3.72182771387539      -0.27158189692950      -1.62089970604559
H         4.02866043574029       1.01272068919922      -0.37893128934539
H         4.57763176563020      -0.67783565377475      -0.08529462700340
C         8.04028328707368      -0.96723096980066       0.42054657857133
O         8.73164988635722      -0.00407265004414       0.12890051676473
O         7.47250913330096      -0.99650017220387       1.50079914820053
C         7.88555974295760      -2.11179042185350      -0.53661161641635
F         8.32608182507649      -3.27760937557887       0.06200157222624
F         8.62361533357272      -1.88869872648770      -1.68608559467222
F         6.55379503056451      -2.25285643224995      -0.87846219250629
