40
C10H22F6NP optimized with DFTB in AMS.
N        -0.34643727579905      -0.49232317135128      -0.16935138502462
C        -1.27916280757395       0.23128059632227      -1.10314863358669
C        -0.44235062552462      -1.96879864219341      -0.44827946942138
C         1.04105120243072      -0.01431454164669      -0.49816603660248
C        -2.71924347953819      -0.25319985463073      -1.01028853125487
C        -1.86654347143944      -2.50821423824473      -0.36452048748707
C        -0.68605516002248      -0.24329342651439       1.27527850588746
C        -2.80871248593225      -1.74944734986984      -1.29456390629178
C         2.15420283061904      -0.57204832137043       0.38796217364944
C        -0.64032690601961       1.20996582102498       1.71182688970365
C         3.50570640399315      -0.08153433302030      -0.13150160230630
H        -0.89270672328065       0.06690261925173      -2.11405352153358
H        -1.21171805976953       1.29635121565019      -0.87528199425190
H         0.19444000839093      -2.48126742337139       0.27477966972579
H        -0.03780273753441      -2.12590453953413      -1.45287261851923
H         1.02789341064549       1.07633223413178      -0.43097998194323
H         1.22872641261221      -0.28869016228203      -1.54011130546053
H        -3.29538665635994       0.30450039048842      -1.75326483271667
H        -3.13943373588814      -0.03377849732164      -0.02798701836762
H        -2.23938437898944      -2.46286937532520       0.66013066000972
H        -1.82477884766066      -3.56080643206315      -0.65681548708444
H        -1.69107073030015      -0.62379295270391       1.43337661077666
H         0.00139414399771      -0.84574375685701       1.87152415051084
H        -3.83207733285856      -2.08555286895176      -1.11881238925036
H        -2.54754390524378      -1.95001069368496      -2.33980747316446
H         2.02643023345837      -0.23596339192467       1.41930258476588
H         2.14197996462091      -1.66454102290704       0.38030632610552
H        -0.91315164200784       1.22715786506681       2.76678093984161
H         0.34827091041019       1.65364386867054       1.60015729652922
H        -1.37181554779862       1.81032759421936       1.17460093590103
H         4.30242590133692      -0.46974652609871       0.50164607176898
H         3.67312360670503      -0.42514211179433      -1.15274237485482
H         3.54906428024143       1.00783907061415      -0.11742858937905
P        -4.20600243784238      -1.00785465175382       2.72205028717237
F        -3.94109976014635      -0.42958382465764       4.22349378927385
F        -4.91495866184878      -2.35152515560935       3.30164864176689
F        -5.63099268433488      -0.23035070764445       2.61321757415984
F        -4.38317437223701      -1.57245814622466       1.15952071585298
F        -3.42741375713752       0.34786814435827       2.08085560335510
F        -2.70973248277383      -1.77906543204681       2.76673752264430
