47
C15H29ClN2 optimized with DFTB in AMS.
N         3.03940279944987       0.84622164892482      -0.05462668651348
N         2.81916519734443      -1.27775170615233       0.22219440495290
C         1.58645874707549       2.79832809524607      -0.28636162456867
C         2.95434124168212       2.28668625821126       0.17167597970641
C         0.93746094312913      -2.58052334471528       1.09601658520442
C         2.44419029238042      -2.55384800695307       0.81694280735126
C         0.42497107725396       2.14738322594359       0.46635601963992
C         0.10998357827477      -2.34664826185507      -0.17183021633636
C        -0.92459077736709       2.61340739130179      -0.08853650332523
C        -1.38750903267794      -2.29860881528719       0.14540588479176
C         2.74738014437866      -0.09261635799646       0.83971134047031
C         3.29120972400131       0.26620685079030      -1.26504711278473
C         3.14975577687651      -1.07387466839301      -1.09374657895536
C        -2.08730589273850       1.95808161239955       0.66275481148017
C        -2.20639919044854      -1.98088726650183      -1.10973301484815
C        -3.43557510817651       2.35969951541835       0.06745119239650
C        -3.69817993367499      -1.89509376467228      -0.79368342085642
H         1.57346928743386       3.87975378600005      -0.12852274998279
H         1.49587480988409       2.61727276738965      -1.36067971947341
H         0.69849661975205      -1.81194479436600       1.83767555082822
H         0.69183110589564      -3.55439846719233       1.52872653404769
H         3.73077151082968       2.76032096016700      -0.43624674652720
H         3.12446351794975       2.47537033457954       1.23491309964683
H         3.00632093282808      -2.68522127360059       1.74619504545440
H         2.72563866736539      -3.34265578065515       0.11523350087215
H         0.49066801125582       2.39118336428133       1.53332031079567
H         0.48818463004864       1.05625928516723       0.37157646741406
H         0.31188456519161      -3.14530768884214      -0.89313084237572
H         0.40992531842357      -1.39867097042499      -0.63022287431861
H        -0.99965603528025       3.70209427064609      -0.00283107083974
H        -0.98440438544902       2.35677626592569      -1.15124615751215
H        -1.57041759402647      -1.52902584030088       0.90353932976263
H        -1.70576978865930      -3.26016120621343       0.56184285095484
H         2.51902064672796       0.06570208297633       1.87931777497998
H         3.53467553564654       0.89039205144576      -2.12367448206587
H         3.26031667594366      -1.89127306729196      -1.78384493872072
H        -1.98154075553990       0.86804379476097       0.61654817626220
H        -2.05166953436856       2.25007150104910       1.71802941983460
H        -2.03572703989033      -2.75809679832190      -1.86194604510047
H        -1.86843018163189      -1.02787109257124      -1.53027647491577
H        -3.56938954287916       3.44082647788004       0.11998768209605
H        -3.49738388010262       2.05297480287631      -0.97752194793519
H        -4.24589110264628       1.88160972368998       0.61854402196334
H        -4.25810184078629      -1.66480527149835      -1.69996943258109
H        -3.88856912261977      -1.11129639798549      -0.05927604213502
H        -4.05996880930605      -2.84250024085174      -0.39193669695964
Cl        3.66548459724643       2.87309029677192      -2.85486788357454
