30
C8H15BF4N2 optimized with ADF in AMS.
H         1.83646273724729      -1.33733117394482      -3.49326381198247
H         0.41883104360669      -0.25041044305438      -3.58310417505115
H         0.17249986624856      -2.01787635585962      -3.44419395470479
C         0.80881286613906      -1.17530503237079      -3.14345597909489
H         1.33883911349162      -1.95290326274892       1.42977278697957
H         1.68266111929589      -2.95010847820371      -1.14007709256403
H        -0.07205097630472       0.90116319576888      -1.40397022481091
N         0.80388070435857      -1.05493044251550      -1.69173970067366
C         0.35666220645128      -0.00157752661697      -0.98739485285448
N         0.52938127043394      -0.26194655937217       0.31477545106311
C         1.09189855467458      -1.51293012638279       0.45718913998138
C         1.26574248962589      -2.00816603666672      -0.80468564733087
C         0.10490646323441       0.62341680938343       1.41844525679315
H         0.72111029508858       0.34005396582146       2.28604733243478
H         0.34851025150747       1.65580390065486       1.11759043844753
C        -1.38213682187033       0.44991415865809       1.70918949424291
H        -1.55244241626857      -0.61081306103783       1.95934000984039
H        -1.96519245780322       0.69315069240705       0.80043903367321
C        -1.84439239697784       1.33508939725084       2.87184138064819
H        -1.60925046689306       2.39229482075300       2.64457345895503
H        -2.94563260315837       1.27024825678794       2.92030369678116
C        -1.25190969667915       0.94037549796232       4.22407646844478
H        -0.15788515149347       1.04675214424607       4.24926152173062
H        -1.46430835145063      -0.11498950425734       4.44971893651678
H        -1.67392691131080       1.56724856855571       5.02433311341514
B         1.23971840690452      -1.93099345949049       3.83561761580939
F         1.30055052266616      -2.36151272065705       5.15589932793676
F         1.73676200466510      -0.58527782702593       3.70575350114318
F        -0.10397882638512      -1.95833564870763       3.33417416794142
F         2.03077294755566      -2.76314673553699       2.96630078548876
