56
C16H34BF4N optimized with ADF in AMS.
N        -0.18931483441676       2.54000181359326       0.76943837531478
C        -0.87086115368968       3.70097338901848       0.05921141745993
C         0.38245635722525       3.21230885460328       1.99718603043922
C        -1.18598172714460       1.46774471788375       1.14363139541589
C         0.92226457636148       1.98848119793473      -0.11147230817140
C         0.10583498088125       4.86179519026166       0.20519167390052
C         0.90276348725395       4.56778678177105       1.50563764304226
C        -1.81062000609490       0.77197122898821      -0.05204656418654
C         1.67006104883115       0.79023372217221       0.44531436883578
C        -2.83759897239834      -0.26752456438163       0.39573910720695
C         2.64553890920576       0.29033448623288      -0.62715775073572
C        -3.48818828964196      -0.97065160437680      -0.79569687849601
C         3.40117787049420      -0.96582251109556      -0.20324953598343
C        -4.51574396688475      -2.02012522459838      -0.37986865883895
C         4.35532018737082      -1.47737470025597      -1.28095432760465
C        -5.16267491556876      -2.71837699556409      -1.57380323571764
C         5.10616822183900      -2.73470257012590      -0.85089305791983
H        -1.10170655547015       3.42578020194614      -0.97980469560992
H        -1.80174427945507       3.87945422480864       0.62162458438317
H        -0.45490648032747       3.33245639976308       2.70103714938935
H         1.13832865985853       2.56032252423181       2.45201159862426
H        -0.65813278248107       0.75805271679435       1.79856557157538
H        -1.95279117527086       1.97605605164500       1.75036164089992
H         0.46225207930042       1.73282086442052      -1.07368594804055
H         1.60696716379899       2.82471450303303      -0.30391747016309
H         0.76121753873334       4.90807007793859      -0.67618949477305
H        -0.44110918691787       5.81383272976063       0.25537363398904
H         0.74082358611893       5.33255684438897       2.27896417223502
H         1.98432068352568       4.53185998194397       1.30985954815244
H        -2.28623859310293       1.50634576389861      -0.72085056225907
H        -1.04036181583426       0.28168710026170      -0.66677143688264
H         2.22515250984356       1.03253016248793       1.36964071408442
H         0.97418262107249      -0.03062929307189       0.68624227105639
H        -2.35311479980160      -1.02111049137665       1.04558122819784
H        -3.62279357971190       0.21477774718551       1.00832713975377
H         3.36576310279875       1.09232920383647      -0.87249570060224
H         2.07682627044036       0.09523001529970      -1.55352170168071
H        -3.96709180700724      -0.21539911170903      -1.44498853921791
H        -2.70209379562821      -1.44303918057450      -1.41269468374171
H         3.97188902552117      -0.76604496638388       0.72417964613420
H         2.67472188301370      -1.76359918139963       0.04401854641349
H        -5.29721012979031      -1.53924118515801       0.23701574503666
H        -4.02736880473535      -2.77030231584678       0.26915574306713
H         3.78187949413336      -1.67950138729892      -2.20359360265117
H         5.07694479526813      -0.67980447463573      -1.53564726652450
H        -5.68093466492662      -1.99288184515867      -2.22063887440572
H        -5.89895965842400      -3.47085789948164      -1.25039719262054
H        -4.40506324176061      -3.22871093107194      -2.18957842841820
H         4.40470633390716      -3.55350916777754      -0.62257725918093
H         5.78844561487955      -3.08714360567455      -1.63999392943954
H         5.70591124994745      -2.54659884148356       0.05470375132760
B        -0.50095831192829       2.32772606377145      -3.35472932546471
F         0.41780372805382       3.30123838241286      -2.83460458430818
F        -0.06612798782568       1.02819215592369      -2.90664256983739
F        -0.56804883630617       2.38209172532243      -4.74361520399280
F        -1.78657335773286       2.58619529006664      -2.75910179446667
