47
C13H26F3NO3S optimized with ADF in AMS.
N         0.11622611059625       0.39064749105345      -0.14801466784554
C        -0.65517184020239      -0.20825430812967      -1.30421436385895
C        -0.87193931238261       1.01002570010333       0.81950643603382
C         0.96109427118116      -0.65619981111727       0.58423679442490
C         1.02673073616394       1.47784449270712      -0.72889905359518
C        -1.69088537154855      -1.22669490370734      -0.86192128246998
C        -1.97905980699395       0.06120515996254       1.26096794827416
C        -2.70395895866178      -0.57720696246782       0.07894096016953
C         1.67947681370075      -1.66151752217017      -0.29804153087150
C         1.59831059940052       2.47356499574212       0.26496276967813
C         2.44366228437789      -2.64983397684540       0.59217265057853
C         2.45410613353856       3.48226312308413      -0.50582904001305
C         3.26047255059374      -3.63529472649262      -0.23680659075034
H         0.08501632807341      -0.62209733356448      -2.00091755723343
H        -1.15510732116546       0.64010800494047      -1.79829768187799
H        -1.29565778068672       1.88314783093286       0.29714504292196
H        -0.29107421538959       1.36654085551614       1.67985248973911
H         0.28644622828333      -1.17310588174633       1.27902601936305
H         1.70935047292715      -0.08959081681824       1.16093727873247
H         0.41647631520117       1.99535879507976      -1.48702084175011
H         1.85996868237655       0.95186669373458      -1.22218187059622
H        -1.20551478187123      -2.08704272258490      -0.37180533716166
H        -2.18509758897861      -1.61455286820078      -1.76739319907446
H        -2.67763647042413       0.64806188460455       1.88045338200037
H        -1.57119811032644      -0.72299037624582       1.91905854165959
H        -3.26934977798389       0.19630293880814      -0.47236899896842
H        -3.43609172036777      -1.31828195380337       0.43595858975531
H         2.39956687878328      -1.14891185205717      -0.95778583000233
H         0.97350215991108      -2.23252061491621      -0.92540630497601
H         0.80042280442413       3.01007829069053       0.80392787883976
H         2.24604227239544       1.95249785456298       0.98860233669921
H         1.72329342149667      -3.19229808871568       1.23436320408903
H         3.12090650304633      -2.08405390605091       1.25326715473406
H         2.90924684942222       4.19882998591824       0.19132900053275
H         3.26437036887867       2.95742288625713      -1.03172306646512
H         1.85093843025320       4.04572143903856      -1.23687959119192
H         4.03020122970546      -3.09333145119888      -0.80693944125599
H         2.62243593039432      -4.19877855997244      -0.93844831572957
H         3.77395697893643      -4.35720257808621       0.41448432516833
S         4.75061674603683       0.22782996156724       0.12724782785687
O         4.09378903495155       0.63534861031216      -1.13853155988094
O         5.46921899557523      -1.04916038954492       0.08416613248975
O         3.91314252490135       0.44963197370606       1.33211720781554
C         6.11709366949184       1.50250078026264       0.33480610198193
F         5.61020495861648       2.77073984058935       0.38879079590654
F         6.99476493633926       1.45501407068498      -0.70057416089941
F         6.81036194780891       1.28799348967754       1.48339947702341
