46
C14H29NO2 optimized with DFTB in AMS.
N        -1.36629831411958       0.54332322744388      -0.00026197656326
C        -2.03294885199981      -0.53380284267564      -0.79424680920571
C        -2.27724770715483       0.72513284531304       1.17731163496481
C        -0.02324402752099       0.09631738614449       0.50587497077814
C        -2.59375532435233      -1.50632702810847       0.24131038766566
C        -2.76254974752304      -0.67720627836020       1.52612516194497
C        -1.28032807772689       1.80225740562943      -0.81230537041221
C         1.03551508868664      -0.14100809635956      -0.56544335259268
C        -0.61995983110926       2.95942367363385      -0.08092575306055
C         2.37092868201811      -0.40591848471898       0.14226733993657
C         3.50617947876798      -0.58780437091448      -0.86723100051530
C         4.84065222755363      -0.82682908064210      -0.15352441887670
C         5.98441270465239      -1.00159486511893      -1.15065576856115
H        -1.31749847523871      -0.98816517735864      -1.47875329069987
H        -2.83844234112591      -0.07297712657613      -1.37136636632090
H        -3.10729865638006       1.36142888580002       0.86196695567319
H        -1.71429757943462       1.21521481114156       1.98338772559372
H        -0.18683630416641      -0.81846127825358       1.07809237877953
H         0.33628847270023       0.87930983065405       1.18725730132138
H        -1.90610910024541      -2.33879579408293       0.40286469318202
H        -3.54510910936060      -1.91459796598305      -0.10430136094213
H        -3.80516557753303      -0.64584293192987       1.84701100458240
H        -2.17129407802139      -1.10228196329151       2.33935598251030
H        -0.73762200398125       1.55828060499027      -1.72911852243251
H        -2.30737652083498       2.06443592373578      -1.08465313294647
H         0.77615551474551      -0.99104984120849      -1.20630070899485
H         1.14501289325369       0.74119139194744      -1.20144785120740
H        -0.71711273744081       3.84865016975844      -0.70342260806586
H        -1.09854692017855       3.14334642248972       0.87916220744616
H         0.43628006325405       2.76943964966972       0.10153636056202
H         2.28143192621175      -1.30335462212314       0.76388922669054
H         2.59073127906993       0.44045938170538       0.80083295737301
H         3.58355458618602       0.30797380692692      -1.49327904697063
H         3.28427722655478      -1.43618783587615      -1.52538205242905
H         5.05613662229951       0.02223343776105       0.50314587686940
H         4.76316039125975      -1.72220575228148       0.47274302633344
H         6.09158054237713      -0.10974261648025      -1.76993940686845
H         6.92181697092580      -1.16967904565269      -0.61972509712065
H         5.79719705090924      -1.85588638887915      -1.80340312810149
C         1.46011090257998       3.05332507925482       4.16823144307922
C         0.82155381204089       2.41147745932589       2.91613673025467
O        -0.41407167159963       2.21261017284796       2.96299195919054
O         1.58214922502022       2.13909875227793       1.96305986999182
H         0.96387045534572       3.99966130538522       4.37646233769807
H         1.31069183798447       2.38925835383954       5.01878571008678
H         2.52399998755068       3.21802016199899       4.01129540917942
