32
C8H16F3NO3S optimized with ADF in AMS.
N         0.80923979644759       0.06080193323684       0.48503553464094
C         0.08678553978924       0.86137080494561      -0.57244462823524
C         0.04867649011100      -1.24310269567177       0.71628103852467
C        -1.35839540886904       1.14294971810063      -0.19077511345338
C        -1.39768092470849      -1.01139230272701       1.09928237229263
C        -2.12409903022722      -0.15634409756469       0.06318448357789
C         0.96149553764188       0.86864965493355       1.74633220796245
C         2.18619656056822      -0.29396753907701       0.01338724809821
H         0.13187583913035       0.25873069770105      -1.49398519714989
H         0.66562673241432       1.78501317530269      -0.72603575420056
H         0.60840640281577      -1.78421378152018       1.48986316614846
H         0.12152644793009      -1.78032949808990      -0.24445620001692
H        -1.81354062329875       1.71570224888181      -1.01522474986475
H        -1.39477427974624       1.79088094497739       0.70071448288682
H        -1.44400762785395      -0.57386016931755       2.10881912182642
H        -1.86524926792458      -2.00558506911835       1.18937867826610
H        -3.15046236579216       0.06657087486553       0.39428509697914
H        -2.20507177465776      -0.71783957070343      -0.88624304784808
H         0.00365117565438       0.94967794907802       2.26363729174140
H         1.66773386926858       0.33767402393128       2.39365027275452
H         1.34154962961462       1.85841908426837       1.45933458934311
H         2.10500765091206      -0.85436024640500      -0.92649331860653
H         2.75261447310269       0.63401745270518      -0.14070800665286
H         2.64783835425980      -0.90740603005331       0.80044023103508
S         1.48676676075172      -1.87580093621105       4.01920572133971
O         0.17687544164425      -1.20988484158864       3.85728704131701
O         2.36377169777287      -1.73676398659271       2.82160009866176
O         1.48210684476705      -3.19348965353899       4.64724706157296
C         2.35270599359670      -0.77048865427428       5.26569498223508
F         1.63689548759162      -0.66523881003670       6.41249939400625
F         2.50739293159235       0.49831191781865       4.76049222387340
F         3.58748688930103      -1.23628845325604       5.57883184594418
