42
C12H21F3N2O3S optimized with DFTB in AMS.
N        -1.98993703883325      -1.74882528192756      -0.64382006198720
N        -0.03080061124498      -2.28421652060121       0.06403714254592
C        -3.36410018235142      -1.25713365260619      -0.64691049281244
C         1.10913696980567      -2.45800376321549       0.95645075897659
C        -3.42445659330829       0.21717638672930      -1.05141241904237
C         2.06717341044970      -1.26786753654653       0.86219280900113
C        -1.16560041211850      -1.67368812164506       0.39622735183975
C        -1.37103481756662      -2.42125312599543      -1.66275446095671
C        -0.13266851485106      -2.75959801492849      -1.21698040796501
C        -2.74376326950234       1.12904179845955      -0.02538095293322
C         1.43306886678606       0.03329179011419       1.36403139938836
C        -2.96939990794465       2.60224163877676      -0.35717353076260
C         2.44403931341237       1.17776862928154       1.36330146375173
H        -3.93083089794543      -1.87019035504303      -1.35160018707428
H        -3.76203161817979      -1.39794220768432       0.36148074280868
H         0.71900797510193      -2.56469403217830       1.97150417182457
H         1.61909509179060      -3.38038859352848       0.66833176719721
H        -4.48148546529579       0.48592226550293      -1.13465908278069
H        -2.96380291208609       0.34698721265741      -2.03638800619444
H         2.39674216774058      -1.14857147554773      -0.17489480433406
H         2.94486728421943      -1.50563072763145       1.47021251842760
H        -1.37975731671014      -1.19093796114267       1.33367869819040
H        -1.85789937986919      -2.61129023518632      -2.60321202420463
H         0.66649836876929      -3.30001585116564      -1.69315990635941
H        -3.13858956165982       0.90974943646905       0.97117117121058
H        -1.66766755988834       0.92328042206101      -0.01322501526161
H         0.58778234860847       0.29886597670762       0.72026868402229
H         1.04926299460858      -0.11736606059435       2.37761951095998
H        -4.03427607124843       2.83721920479606      -0.34733393928703
H        -2.56955387973375       2.84021842237278      -1.34420447802686
H        -2.46901275557660       3.22834559350884       0.38134525350463
H         2.82550834288191       1.35183146423503       0.35618442190435
H         3.28433300584274       0.94619631639268       2.01867448844413
H         1.96792524177100       2.09151251803345       1.71815283663800
S        -2.97579022690499      -2.35154263518374       2.98163114729575
O        -4.10146692609716      -2.87559223035080       3.70136035129646
O        -3.11692642387069      -0.98193424965955       2.49054980633964
O        -2.37727704846124      -3.24297435474240       1.99356357099751
C        -1.60760412139641      -2.17109834514317       4.22403147333324
F        -1.22466347502927      -3.33537638944622       4.72962273813161
F        -1.91693628485331      -1.35651022163751       5.21955378374242
F        -0.53734316806081      -1.64330255996656       3.58491468011004
