26
C4H12F2N2O4S2 optimized with DFTB in AMS.
N         0.69079376957993       0.15204415317496      -0.42615664713670
C        -0.53862059040584      -0.45788454163721       0.14348463869471
C         1.81359712681981      -0.01579930238989       0.53899168891395
C         0.45635209895702       1.60171742812742      -0.67191190051626
C         1.01892611848445      -0.52638621648790      -1.71079078903605
H        -0.35973816999562      -1.51807243751691       0.31253396819373
H        -0.77565647474183       0.03311252297384       1.08553553614325
H        -1.35903202678049      -0.32723296965145      -0.55982728418639
H         2.70115910376542       0.46386566454764       0.13231803379942
H         1.53571596521954       0.44598216349431       1.48451137184538
H         2.00319588375920      -1.07799233253053       0.67581990919204
H         1.36721315540957       2.04529994673532      -1.06668419093326
H        -0.35186851604308       1.71127648006714      -1.39232620393971
H         0.18756279592994       2.07875592588406       0.26865796210831
H         1.90465842477913      -0.06598982179531      -2.14472959017439
H         1.21918217016738      -1.57694855664836      -1.51134193490487
H         0.17449105536669      -0.42308318462695      -2.38956406023480
N         3.86013905150258       0.36053593631501      -3.12082011266257
S         3.62479032574138       1.80146961947869      -2.50044888219956
S         4.79956350280680      -0.63298241851328      -2.30375517926590
F         4.88547251336218       2.66455107893643      -2.98770998056830
F         3.74116966658512      -1.15378684452566      -1.12149648342750
O         2.49787497902272       2.37862956416266      -3.17026356814850
O         3.64757808574282       1.90753698108299      -1.06427879089224
O         5.87490651814779      -0.07470470200047      -1.56057487455033
O         4.99374303681744      -1.80109656655651      -3.08891992561345
