31
C9H20ClN optimized with ADF in AMS.
N        -0.22154032131469      -0.15496480561360       0.16903164480482
C        -0.80965873409088      -1.07649386204762      -0.89100267411505
C        -1.38800902237829       0.08160742834766       1.09908388202908
C        -2.23598050726241      -0.57259500245664      -1.09849473901442
C        -2.61122779010578       0.20400137929816       0.19136751661936
C         0.91522348781298      -0.83249367411755       0.90232494405171
C         0.21637776363980       1.14307225802175      -0.49760458092834
C         2.06615462727542      -1.29747599534675       0.00524749294870
C         0.82307105433613       2.16576489865112       0.43756555834900
C         3.41180284273340      -0.70759592947921       0.41659096053635
H        -0.78936572542505      -2.08629661641544      -0.45328263342226
H        -0.16335092127033      -1.01984056252711      -1.80104038330568
H        -1.18787298110882       0.95770765173523       1.72795249230417
H        -1.45506751266384      -0.80796798185999       1.74219743450181
H        -2.91214292702726      -1.41961843290644      -1.28106622232781
H        -2.28481809136918       0.07804967842401      -1.98371285689695
H        -2.83648259826682       1.25751196833992      -0.02999348326373
H        -3.49382398369427      -0.21633148670435       0.69495230793445
H         0.44322138248160      -1.67712487321566       1.42725269899677
H         1.25335137441335      -0.12016085114371       1.66996922508008
H         0.89257650069648       0.84584719093714      -1.33186046014226
H        -0.68774485465098       1.54324613157455      -0.97752221927003
H         2.11457284751600      -2.39839242310826       0.04343088829230
H         1.87655646974974      -1.03932541867216      -1.05994356275502
H         0.15248407342228       2.48203755143285       1.25183049793806
H         1.77312198512930       1.82981977317414       0.87315981268240
H         1.04722641836021       3.06145179930415      -0.16190966615037
H         3.41817625375842       0.38438908260529       0.27932971072911
H         3.65767406588201      -0.92855562447358       1.46817015972569
H         4.21391154378237      -1.11514103774571      -0.21536707039192
Cl        1.35767059713912      -0.26171642751218      -3.22978547424001
