37
C11H24ClN optimized with DFTB in AMS.
N        -0.21881977488369       0.26043957056373      -0.12195284120433
C        -0.88378184003259       1.16483273928794       0.88178197806818
C        -1.13768959397816       0.08105696102700      -1.29438595867786
C         0.11895996353944      -1.05266463817279       0.53256753099393
C         1.01472345766675       0.95083845902547      -0.64726570882122
C        -2.25384080416629       0.66421932568086       1.31360642628332
C        -2.51147342022005      -0.45422478997901      -0.90588764326785
C        -3.17993473176636       0.46400797278642       0.11625265166331
C         0.93756897941955      -2.01459099175836      -0.32225196279377
C         2.12444447064311       1.19337652740997       0.37385019427696
C         1.15847594067605      -3.30452800844134       0.46957172000812
C         3.29060400184267       1.89855806271074      -0.31573646305939
H        -0.22577047613335       1.21711512327878       1.75761473895747
H        -0.96965027076900       2.14996889515236       0.41499892189218
H        -1.24699513857342       1.06358887054114      -1.76286804558711
H        -0.65017225050703      -0.58958447113941      -2.00477815187821
H         0.65147109962504      -0.80974495425870       1.46123701890603
H        -0.82367617487879      -1.52786773291714       0.80681433129839
H         1.39062007493575       0.34370920627410      -1.47546754460606
H         0.67853385079061       1.90776200398867      -1.05796924237455
H        -2.15888319300712      -0.26490357298108       1.88048081122844
H        -2.67391519819660       1.41707576442218       1.98531133535667
H        -3.11333823828613      -0.50217890918717      -1.81758452132750
H        -2.43171698216885      -1.46911013433633      -0.50842949579424
H        -4.12469991378743       0.02371498597985       0.44338126224515
H        -3.39723324057261       1.43107826379683      -0.34953202750946
H         0.42056138221246      -2.24943563509555      -1.25828076632295
H         1.91040856773103      -1.58350333871489      -0.57031504172198
H         1.76189078129699       1.81143961344353       1.19618640364876
H         2.47202746824889       0.25104496033342       0.79917998162364
H         1.74907395628447      -4.00273099167227      -0.12264178880603
H         0.20486361557973      -3.77310657327109       0.71430707359976
H         1.69022715892212      -3.09268370799200       1.39674184724875
H         4.08447288062194       2.07346821110426       0.40899255105466
H         2.97469134131479       2.85951147576233      -0.72446886082584
H         3.68843055661255       1.28751622887194      -1.12756621714302
Cl        1.04086197416349       0.31216033437564       3.29726531306766
