64
C18H26F18NP optimized with ForceField in AMS.
N        -0.71418525948649       0.31588674954729      -0.14961278956402
C        -1.28220832555892      -0.45171769755786      -1.30592102281297
C        -1.84076837471098       0.73328281063504       0.74853937182521
C         0.27688792512380      -0.50177856841713       0.63524829208225
C        -0.07961344460909       1.55130104031022      -0.72689592310993
C        -2.14184259166972      -1.65990713626212      -0.89728714854125
C        -2.74496602994286      -0.42970638535484       1.20578521148462
C        -3.28125143281696      -1.21885119214508       0.01541192070469
C         1.55468944654134      -0.92673061994504      -0.12962978775405
C         0.64924326888942       2.47075006173236       0.28456628783934
C         2.48853163327281      -1.73192387235911       0.78370445025468
C         1.21467123538414       3.70377463863309      -0.41633931161890
C         3.75511351082171      -2.15601515675726       0.04526985837764
H        -0.48663219161655      -0.79597638137722      -1.99848891203769
H        -1.93365594930036       0.21236535417752      -1.92132949282969
H        -2.49167760264490       1.47941091731143       0.23670308603166
H        -1.45632018334684       1.22288221719153       1.66894474271308
H        -0.19056627193315      -1.42919329937993       1.01871914698007
H         0.58411943499493       0.04782850781128       1.55179658254582
H        -0.85360711000614       2.16963132019486      -1.23850072360253
H         0.63941961788666       1.27835600073505      -1.53117039505357
H        -1.52951017607343      -2.44426176752686      -0.40682465986123
H        -2.57512443322846      -2.11866903653809      -1.81246950563890
H        -3.60505770102970      -0.01357214013153       1.77373326791377
H        -2.20311966364919      -1.10565603077614       1.89951162606910
H        -3.99314822963026      -0.58523295356744      -0.55867478833346
H        -3.83318906709930      -2.11231005856493       0.37944392599056
H         2.11152617927228      -0.03889786133713      -0.49148032279949
H         1.29246160896531      -1.56547116059253      -0.99705335121413
H        -0.04503144705546       2.82149805705880       1.07417509507776
H         1.49727406289644       1.94187122191538       0.76474189289031
H         1.96454840680306      -2.64263001000556       1.14783637595271
H         2.77599642421160      -1.11640438637111       1.66398940369103
H         1.73540507404719       4.34712547841521       0.32295876167856
H         1.94377756093620       3.40349692994189      -1.19893119609596
H         0.39687964428583       4.29371690157101      -0.88252514831078
H         4.31709992025600      -1.26266112968242      -0.30140662208237
H         3.49816050910057      -2.79065736421676      -0.82962936972025
H         4.40554893737739      -2.74096801651427       0.72895070309561
P         3.58479298288147       6.39473230065646       5.50620990865033
F         4.61117267267244       7.77443053689519       5.59191952657007
F         4.32247428164676       5.08768575240368       4.65887864520117
F         2.77333143099317       7.40832651297422       6.63511507000738
C         4.92658756132450       5.77419691897019       6.76223425331587
C         3.43106039791198       7.29062940239096       3.79720088604492
C         1.87658349891923       5.50829382116401       5.68517964210650
C         5.13195096070197       6.59646974583861       8.06335747694133
C         2.60182727174855       6.58477783089360       2.70400435833233
C         1.62274871149736       4.73247999272977       6.99340478241112
F         6.16180080040016       5.74578957260262       6.12578174566375
F         4.64175395029694       4.47603009109986       7.13668478134976
F         4.69816846820021       7.47043421007166       3.24962664598323
F         2.86219738221698       8.54104029056897       3.99551254202016
F         1.75037851302757       4.58064612345254       4.66667104769171
F         0.84993565384320       6.42999613181024       5.53074785307484
F         6.00059051138741       5.90564390233040       8.89002625976627
F         3.95720252333418       6.78715611299226       8.75863753203718
F         5.70183101650017       7.82906258229728       7.79918628348766
F         2.74449951775767       7.28514485068879       1.51870218105503
F         3.04524718335975       5.29430946017301       2.48597034657213
F         1.25681559906633       6.57303715390211       3.01463561551540
F         2.34740183321175       3.55557461240698       7.01368501476636
F         0.28247755347325       4.39442721474136       7.06094833611119
F         1.92229470556908       5.48133140534362       8.10961617570704
