22
C8H12ClN optimized with DFTB in AMS.
N        -0.47845758245779       0.07114542217434      -0.20750983441310
C         0.90977981572659       0.12230351344316      -0.66265830346143
C         1.89689796646008      -0.22514690688212       0.45948678637886
C         3.33371006190771      -0.16916370545959      -0.05291423823381
C        -1.08786241465782       1.25408327336545       0.24618586734042
C        -1.04611279577813      -1.14739143007304       0.05066383275541
C        -2.54614447270922       1.14043505485215       0.37316219356516
C        -2.34413254524480      -1.25452545681878       0.41796440121305
C        -3.13064309648372      -0.06378213118565       0.51873489557184
H         1.02262022716217      -0.58398942132795      -1.49288191446228
H         1.10754133868913       1.13030831305117      -1.03958736132003
H         1.67799615383038      -1.22858734580290       0.83671024211863
H         1.76864197631351       0.48071728791799       1.28391438232028
H         3.48084110976647      -0.88113352530392      -0.86672942638753
H         4.02463241852336      -0.41576089443059       0.75304542762513
H         3.57079530226047       0.83080002598557      -0.41903859456887
H        -0.75152917490223       2.11954891739939      -0.32479868762881
H        -0.41853855987047      -2.01166745792869      -0.13513285917999
H        -3.10226579472891       2.06703197116824       0.43837633712517
H        -2.79322234688048      -2.22433458752379       0.58104020056817
H        -4.20066814789153      -0.15219687934183       0.66737418441939
Cl       -0.40021685773477       1.69436100422139       1.99518121565431
