31
C9H20ClN optimized with ADF in AMS.
N         0.23162964844787      -0.17343917512116      -0.09715905613356
C        -0.70566983138670       0.53279149502142      -1.07000459551124
C        -0.50101781625037      -1.36756029818327       0.50680176610648
C        -2.02584535388544       0.93400121379417      -0.43735126473701
C        -1.83263448089733      -0.99434769299354       1.13714557050834
C         0.69940759963979       0.74030413795950       1.00721140875595
C         1.38897465327880      -0.69692246104612      -0.93904567852425
C        -2.73736611387071      -0.29732702271605       0.12275361831105
C         1.51754327451813       1.93217481493563       0.55114818842077
C         2.47619238166490      -1.40145760274896      -0.15639231195647
H        -0.88100755558161      -0.22460101219796      -1.86765944384648
H        -0.15054905456316       1.38840796025199      -1.47833043093228
H         0.18288251052388      -1.81555780392604       1.24056986123355
H        -0.66708021278080      -2.05070771590052      -0.35686816892316
H        -2.62947026209862       1.40120581722772      -1.23369973299222
H        -1.89503312822753       1.70201575855344       0.34718431107597
H        -1.70265516227451      -0.36832083514650       2.03879777086687
H        -2.28938476142619      -1.93878443086735       1.47844698533775
H        -0.19913287525085       1.07354579258421       1.53953603646813
H         1.27546519107215       0.11088642440988       1.70069826837426
H         0.89747771364467      -1.37677736469621      -1.67016234876534
H         1.78429404761335       0.17206361350929      -1.48434115354677
H        -3.69749058315365      -0.01829822428439       0.58523302628246
H        -2.93812363454555      -0.99526007324595      -0.70916792276325
H         1.79816524745420       2.51855827653360       1.43872854250318
H         2.44461064705646       1.63329247584852       0.04432248752670
H         0.95048179568264       2.59625939258177      -0.11484483320855
H         3.22439669487474      -1.75975804084914      -0.87961470252546
H         2.99851765858125      -0.75276933613655       0.56228539930741
H         2.09832003999617      -2.28882143172835       0.36849339037640
Cl       -0.98479177965597      -2.39609214552308      -2.60367311068924
