37
C11H23NO2 optimized with DFTB in AMS.
N        -0.63528555733917      -0.17194428722222      -0.24816617210151
C        -0.85187685728097      -1.47921896230574      -0.95647963517260
C        -1.83003610036574      -0.00473228222852       0.66950856862594
C        -2.36104291183163      -1.62595560343164      -1.05253439439115
C        -2.85404842411529      -1.06883637898240       0.27927830988843
C         0.61740855008903      -0.21398234931176       0.56440118869004
C        -0.61622331465909       0.93765796177058      -1.27280625890519
C         1.88751456238307      -0.42047354522640      -0.26082723524712
C        -0.23868726838337       2.29967455267547      -0.71595289437575
C         3.09590750913341      -0.51319277997460       0.67000847558300
H        -0.42509525140539      -2.27350032177152      -0.33748023589509
H        -0.34870979872391      -1.46410322136250      -1.92290043290198
H        -2.23755634509355       1.00626500700670       0.51923251802467
H        -1.49951238288914      -0.11737534257158       1.70322209712792
H        -2.64168553961059      -2.66944023229538      -1.20051389223405
H        -2.75735441288036      -1.02482128603404      -1.87343057501570
H        -3.84011138116140      -0.61776481286701       0.16490413460399
H        -2.90269359778843      -1.85535606973488       1.03764082140898
H         0.50650278727004      -1.03415037115000       1.27948133602484
H         0.67648853691038       0.72215501517804       1.12379058371855
H         0.07896711963617       0.64223462918169      -2.06242276715885
H        -1.63661121509206       0.98185643407421      -1.67828606103248
H         1.81056699961044      -1.34014236719627      -0.84697497289579
H         2.03200082971316       0.41170468721915      -0.95355657149351
H        -0.89281441020581       2.58231929885881       0.10615305325706
H         0.80202509362920       2.34914921703471      -0.39547406909213
H        -0.38671481736386       3.02381779947347      -1.51661328580565
H         3.19827979690923       0.40072307822305       1.25581404922064
H         2.99027084835535      -1.35599172481592       1.35394892979293
H         4.00263178138046      -0.65314450806782       0.08259400277490
C        -5.07411383839524       2.90153123547812      -1.49690474309016
C        -3.83697133351946       2.08668304936121      -1.05638181824505
O        -3.17694738326744       2.53512120060757      -0.09561808747364
O        -3.59103079289324       1.04481704436488      -1.70814604246354
H        -5.44082078238451       3.50686480819110      -0.67029095894456
H        -4.77670023381440       3.55776145325264      -2.31475363289092
H        -5.85444949395594       2.23070863679881      -1.85161182991549
