23
C7H8F3NO3S optimized with DFTB in AMS.
N         0.51539388157154       0.65600951656032       0.02984497286387
C         1.77363349781155       0.83469496035842       0.45675938296619
C         0.19499843779912      -0.36171479101669      -0.78630914913668
C        -0.47316437759391       1.69189454306776       0.31945165401030
C         2.76800782226202      -0.06011933920853       0.09988363586804
C         1.15059190720498      -1.27310454860489      -1.17397635082371
C         2.46256542370706      -1.12217549661191      -0.73134424908848
H         1.95659738027665       1.67701252164316       1.11274165072958
H        -0.83486758856588      -0.42370306460062      -1.11668810811059
H        -0.27361116569739       2.11659609806248       1.30061951119381
H        -0.35224794953759       2.47381469606472      -0.43220589088565
H        -1.47465546403858       1.26920221307410       0.27514075122063
H         3.77601722788062       0.11526895145903       0.45268213345475
H         0.87285519301346      -2.08798104095580      -1.83006429805903
H         3.22775282444135      -1.82493214648766      -1.03865455046138
S         2.13996356683261       3.83937172081093      -0.46878870431451
O         1.90623704825482       5.03533320504822      -1.22799482166021
O         2.01312019994702       2.58560935035745      -1.21737864067000
O         1.48851040754678       3.77430714908960       0.83514580676261
C         3.94062478144386       3.83625835790932      -0.02882275081649
F         4.27171909372191       4.84117963799183       0.76627655186665
F         4.71502812880377       3.87020984884120      -1.10349493877011
F         4.20551806211423       2.68912668904756       0.62638739746043
