67
C19H28F18NP optimized with ADF in AMS.
N        -0.31266704113448       0.74702188525761      -0.56603494032031
C        -1.05602061076388       0.49798924717100      -1.87059336545288
C        -1.04237433158498       1.83857829789351       0.19829779102421
C         1.08074382341861       1.25387832998661      -0.93096365342221
C        -0.23164956361136      -0.50491521175236       0.27842559044708
C        -2.51518128929828       0.14188345388649      -1.66240810251323
C        -2.51784681764880       1.53852409316861       0.41840074163884
C        -3.23457724166599       1.25459697045846      -0.90085720464621
C         2.05136287820354       1.40101021562772       0.22569573644951
C         0.49943889134242      -1.66489625920113      -0.37409857938168
C         3.34049191080708       2.06704412879194      -0.27232960230248
C         0.59488706776607      -2.85108763649811       0.58874510096105
C         4.37216114286884       2.21666763296417       0.84004233207851
C         1.31515877056769      -4.03771142429070      -0.04638290907746
H        -0.49709906254138      -0.27222269587224      -2.41546711733676
H        -0.96072411527179       1.42850624844980      -2.44493001201214
H        -0.92247440674291       2.74859384851509      -0.40943503401854
H        -0.50915954990992       1.97427532358045       1.14881716316045
H         0.91789136770606       2.21731472483334      -1.42607763889421
H         1.47095391967587       0.57380328912869      -1.69825684967890
H        -1.26036778869266      -0.79610482837669       0.52589814428262
H         0.26247523637900      -0.20706463459102       1.21524696336386
H        -2.62637501528176      -0.82536037807182      -1.14181404290253
H        -2.95495246004449       0.00873633172928      -2.66444238086080
H        -2.95102433555116       2.42307421720794       0.91429073905526
H        -2.64797462537691       0.69706682425481       1.12017245715873
H        -3.23257614021294       2.16912567162776      -1.51975309638544
H        -4.28676983609336       0.98721586756875      -0.71732969442888
H         2.30258913639698       0.41932330507911       0.66409814600978
H         1.62209516840271       2.02182500583899       1.03156525258500
H         1.51548982830915      -1.36498110374852      -0.67849314830319
H        -0.02745031395903      -1.98875592259379      -1.28656854688814
H         3.09497018815898       3.05095214970563      -0.70309782066450
H         3.75775466914563       1.47467575807477      -1.10344983754755
H        -0.42101501186115      -3.15285625671774       0.90207572896917
H         1.12629214299162      -2.53724918177404       1.50493365454294
H         4.66037551635809       1.23705192794259       1.25379582318564
H         3.98005880638191       2.83175593107288       1.66613218968852
H         5.28387108366501       2.70372002047241       0.46373122217488
H         2.34101021156698      -3.76394295096151      -0.33833446546878
H         0.78903199400788      -4.37897190765981      -0.95125722313911
H         1.37665774721391      -4.88728094483264       0.64959974308322
P         1.56562473345189       2.86364937551959      -4.57919928232201
F         2.57982312455117       2.67198004831833      -3.25676736642857
F         2.47603483843643       4.09010343394584      -5.20250730436108
F         0.60754719191991       1.60832351794758      -3.97635618625497
C         2.79466641559587       1.56357234679461      -5.41611945577054
C         0.60487431223685       4.24198510437800      -3.38804303331876
C         0.16488073436262       3.07263263798463      -6.01403290698336
C         2.82863302646949       0.09230161596543      -4.88412440189729
C         0.06840382155816       5.63563247698278      -3.86590280545881
C        -0.12005771264722       2.10251106428287      -7.20727090989434
F         4.08456141688430       2.01843654546782      -5.25026848378686
F         2.60333659016921       1.44745755166652      -6.77432662490620
F         1.48587632723239       4.60710079709119      -2.38560896277164
F        -0.48475667777420       3.66397296613259      -2.71791914449072
F         0.29495879680079       4.30883694624499      -6.60140334138937
F        -1.03882188251177       3.06356442145069      -5.32015834253176
F         3.84392935476418      -0.57896196000395      -5.49225021819072
F         1.68291352499300      -0.58344244624443      -5.14253998895099
F         3.05276324797545       0.02476325084591      -3.54095760413102
F        -0.25382855743052       6.37088356893230      -2.75336024358661
F         1.00954621867458       6.31779478116565      -4.54777261195581
F        -1.05209710090623       5.55759370929280      -4.61079725530640
F         0.72660171651627       2.28905884215221      -8.24073234381400
F        -1.37697167356197       2.34805348959483      -7.68170546157884
F        -0.08318263364743       0.80498505354488      -6.81654637713266
