61
C19H36F3NO2 optimized with ForceField in AMS.
N        -0.52303544641652       1.78555910752668      -0.19737191769495
C        -1.38130622370021       2.32675901699313      -1.30159336300488
C        -0.20557114329358       2.90180079134478       0.75278853042531
C        -1.20504600009844       0.67066975340921       0.54969363233022
C         0.75554006536466       1.32191500784934      -0.83881693091830
C        -2.66781957185331       3.01514685808024      -0.81618151932152
C        -1.44766715604643       3.64312122263079       1.28956324802595
C        -2.33480303285458       4.14431927295517       0.15349066762398
C        -1.51221085306930      -0.60298432597923      -0.27539896558288
C         1.77535189337780       0.63342584599780       0.10353770200306
C        -2.19931595924444      -1.65771020975859       0.60194392450773
C         3.04968219752889       0.25946532145923      -0.66594324123197
C        -2.48910590108418      -2.93594425402670      -0.19368961115527
C         4.05455101083588      -0.46635013315401       0.23793904434850
C        -3.19685135263042      -3.97806293815824       0.67956682317579
C         5.33074375160200      -0.82224585672621      -0.53457516587309
C        -3.48381823384018      -5.25266658554950      -0.10831513233093
C         6.33374166476098      -1.55014509929580       0.35623470754858
H        -0.81291808568010       3.08513919024479      -1.89027130542870
H        -1.65172737273868       1.53883161576827      -2.03441776690266
H         0.35103092428053       2.52639299316869       1.63806341606498
H         0.44850279249098       3.65909229179867       0.26193705974597
H        -0.59873081185987       0.37687081882601       1.43463911932467
H        -2.16518054265814       1.01207064470842       0.98234902344869
H         0.53683320733775       0.62594028610803      -1.67949184699627
H         1.27440111464297       2.18614261116672      -1.31559911285677
H        -3.19859624545568       3.44361523215919      -1.69372557742493
H        -3.36298161214655       2.28833446928253      -0.34797463309842
H        -2.03234052173976       2.99356170064149       1.97371269791300
H        -1.11196949282111       4.51622412581378       1.89007489428586
H        -3.27563159963283       4.56074048829617       0.57384062486989
H        -1.81074818875081       4.95945744148711      -0.39269270585415
H        -2.19183635695661      -0.36564440472608      -1.11868738790799
H        -0.57886144554162      -1.04490563127148      -0.67961490863580
H         1.34589793983141      -0.29610209431316       0.53043366614746
H         2.05887239171521       1.31091297450522       0.93437596097890
H        -3.15524901671124      -1.24360146785973       0.99310669047751
H        -1.54200495795015      -1.90468904220181       1.46497312533813
H         3.51901193087382       1.18454252367584      -1.06850532192134
H         2.78326276758893      -0.40152503835517      -1.52042130720790
H        -3.13265314385334      -2.68940259633146      -1.06705161560872
H        -1.53073608455109      -3.35917396578885      -0.56819451890824
H         4.31553007347372       0.18820790451713       1.09876732054699
H         3.58976586441544      -1.39817601332437       0.62966278651564
H        -2.55756190317651      -4.23127470932891       1.55354730702612
H        -4.15837575244801      -3.56370640890454       1.05437572501893
H         5.07706239266073      -1.47632903983863      -1.39737011350394
H         5.80428102005769       0.10555990805047      -0.92378065318542
H        -3.96024828611982      -6.00221782305791       0.55846607316572
H        -2.53979241474486      -5.67918752669649      -0.50835519395511
H        -4.17267805621212      -5.03738606569369      -0.95263350331592
H         6.62477579248821      -0.90871075079555       1.21534634725248
H         5.89655493867145      -2.49809608201797       0.73637188604166
H         7.24503784033529      -1.79068104296913      -0.23127320258031
C         0.40772936224304      -9.00132826906430      -0.16639529795461
O         0.98620358287521      -7.94913953570678      -0.38771076454393
O         0.95112884925552     -10.05870414669284      -0.44310988800463
C        -0.96279458518829      -9.00237032162924       0.44015272664958
F        -1.85477450013968      -9.59177241868275      -0.43656039016860
F        -1.37676035387852      -7.70933509118000       0.70528000255328
F        -0.94445463722112      -9.71889306258578       1.62225492792357
