55
C17H18F18NP optimized with ADF in AMS.
N         3.88610848526190      -0.63307951469835       1.48591079506761
C         0.65027463396389      -0.68027971948969      -0.56064333604558
C         1.59342515268740      -0.34041692215538       0.59196017129090
C        -0.73898213081557      -0.06942853726748      -0.38932462441933
C         2.96310535434623      -0.97075932851365       0.37731859938980
C        -1.68022501688100      -0.41215891853295      -1.54301357281309
C        -3.06935597921021       0.19600569613704      -1.37206159047942
C         3.99702494120407      -1.46265781076910       2.54289413585179
C         4.60357094454522       0.50734184181162       1.41968058657022
C         4.84066405076065      -1.15446645412900       3.59139755676324
C         5.45164295804905       0.86469570318853       2.44791992375009
C         5.58046079426746       0.02274661333841       3.54683966671338
H         0.56008327149795      -1.77840556546296      -0.64879417913688
H         1.09204631390492      -0.32721545056287      -1.51040911025419
H         1.70183086750720       0.75599475121459       0.67941958978349
H         1.16775100710342      -0.69623153677533       1.54795968716779
H        -1.18202561214703      -0.42216735231037       0.56102694672623
H        -0.65019029994224       1.02986218349899      -0.30417686382961
H         3.44497277139491      -0.62737620077443      -0.54757190047397
H         2.91493206227977      -2.06634167746702       0.32352251950807
H        -1.23392603049196      -0.06022469763769      -2.49080609186062
H        -1.76262054821332      -1.51082218314488      -1.62826423946108
H        -3.01486363213715       1.29505789491351      -1.31659271155103
H        -3.72689235226844      -0.06724106650085      -2.21450588533537
H        -3.54622017704231      -0.16321457130687      -0.44599777326775
H         3.41383112111040      -2.37908835870317       2.49674668485913
H         4.49868445400027       1.09011992347107       0.50806951733617
H         4.93528551364852      -1.85591556677934       4.41927011829132
H         6.04092467671772       1.77433011072151       2.35404807630169
H         6.27652143874405       0.26959317425779       4.34939271843848
P         7.18433682215967      -1.93727570919317      -0.26002954851437
F         5.77545157683709      -1.04677988323446      -0.57288116451315
F         6.80942273883796      -1.90874807332540       1.37633866396660
F         7.52514392993660      -1.90833710977529      -1.87936055705817
C         5.98402707972494      -3.51625239800659      -0.44445419404503
C         8.15887382006114      -0.17278609684482      -0.03856534188911
C         8.82681786827451      -3.03889542987967       0.10206779722045
C         5.19830624050123      -3.77429982063013      -1.77263245157298
C         8.96290705152320       0.19783815003951       1.30024783438093
C         9.34551077035430      -4.15332557272619      -0.92469872777192
F         4.96803675133141      -3.43882245644820       0.51469670988680
F         6.64593760992127      -4.69303891923091      -0.18055177308443
F         7.23403590199366       0.85787421462053      -0.17137660921325
F         9.03899779382180       0.00162306124696      -1.07127762718754
F         8.70388075297991      -3.65932220627188       1.32072230742546
F         9.88796490346373      -2.16248527427055       0.22098320111618
F         4.42111266639177      -4.88871806109874      -1.60982401204447
F         6.00217116831149      -3.98785599000599      -2.82768789866437
F         4.35680764276036      -2.74804052716540      -2.07421893934547
F         8.43734158539711       1.32902845245194       1.87874231111954
F         8.93834138114662      -0.75456903940967       2.25526868429428
F        10.25534829114085       0.47440082109625       1.01670693960464
F         9.40983915757794      -5.36370096504052      -0.31239195229065
F        10.59792401773966      -3.84779056227270      -1.35154723242899
F         8.57267424506591      -4.28837367579659      -2.02075303607240
