54
C16H36ClN optimized with DFTB in AMS.
N         0.00345761573076      -0.04792552403321      -0.05122000419594
C         0.86459949363052      -1.06257252087608       0.65603984400213
C        -0.83786126398029       0.65557626940097       0.98616902795198
C        -0.84899558873043      -0.75297508912236      -1.06583098678851
C         0.83766179029007       0.98579529174881      -0.76652126787478
C         1.95417152728828      -0.48793820663727       1.56040999564194
C        -1.90650353584948       1.59631757168245       0.43695761418921
C        -1.82129937134732      -1.78613701866263      -0.49884220407134
C         1.89018216892755       0.43775300945526      -1.72423222385250
C         2.63029818955940      -1.63633219825872       2.31812304482337
C        -2.40442018089325       2.48457220577160       1.58556888595319
C        -2.66864064619260      -2.36342056887705      -1.63980519495268
C         2.73012144317631       1.61515805175149      -2.23839153775338
C         3.73217869109726      -1.10588456106115       3.23277694319745
C        -3.49107761950305       3.44408786806984       1.10805404212780
C        -3.65269949881369      -3.40840406299948      -1.11863908129095
C         3.82074531890865       1.14043297314234      -3.19494010660146
H         1.31077498324535      -1.70077551980436      -0.11157016058736
H         0.18974859881204      -1.67717556259347       1.25709929291238
H        -0.13976861293438       1.24205441356608       1.59325181119044
H        -1.29724576480067      -0.11212996701638       1.61275705099847
H        -0.17200526327676      -1.24389963387116      -1.76915989977442
H        -1.40385010889181       0.01726978210752      -1.60686499684886
H         1.30722544043136       1.60528782822748       0.00794135213512
H         0.14446058084820       1.61653783232107      -1.32646570871033
H         1.53328546133266       0.21859334718434       2.27739258582978
H         2.70306768749560       0.04640898134186       0.97312472509396
H        -2.74493641627382       1.03578764308080       0.01040712444025
H        -1.49537373053067       2.23935989924637      -0.34450530756711
H        -2.48305219414478      -1.32971821716984       0.24077148267846
H        -1.27619750717072      -2.59880815005477      -0.01171835716872
H         1.42472827991810      -0.07212815668900      -2.57404928432450
H         2.55068980575807      -0.27401099384919      -1.22397607223523
H         3.05642543098868      -2.35015927906405       1.60382326363989
H         1.88250566026278      -2.16830359615046       2.91687367381128
H        -1.55895093148628       3.05438785470524       1.98249401529748
H        -2.79755353238790       1.85417344409391       2.39008225447923
H        -2.01100247901173      -2.81984480283484      -2.38703421557479
H        -3.22012967065965      -1.55323147210868      -2.12806127532999
H         3.18639714772941       2.12866705079620      -1.38687961531418
H         2.07798878936465       2.32960036869336      -2.75094907919007
H         3.32112961052503      -0.39628742170924       3.95090165013436
H         4.50155288741199      -0.60081555120152       2.64802500286668
H         4.19219115830137      -1.92999921769266       3.77816886937493
H        -4.34950138875119       2.89344506369611       0.71908734023462
H        -3.10765926110897       4.09294928812170       0.31966229851571
H        -3.82443298518596       4.06678209181313       1.93800694794336
H        -4.32939497899078      -2.96476757128298      -0.38749796685853
H        -3.11945637747427      -4.23294825546178      -0.64407852630007
H        -4.24344182352657      -3.80501846694463      -1.94400150783868
H         3.38270911208449       0.64267260315748      -4.06155149526680
H         4.49117582677695       0.44067476479783      -2.69414192131662
H         4.40475443766827       1.99257090702462      -3.54194943812984
Cl        1.39996852385325       2.78647533532903       1.86239135765416
