32
C10H19ClN2 optimized with ADF in AMS.
N         0.58646630502614      -1.64466911115326       0.44165359658379
N        -1.49615880717226      -1.16699604825023       0.02786263857276
C         1.96487099078828      -1.54041373288229       0.94389818057795
C         2.75992185390144      -0.47272265195138       0.19753673440033
C        -2.79034814793622      -0.47059384824274       0.02120844124493
C        -0.44233027369876      -0.86151232703052       0.80020684506251
C         2.44546359834195       0.94839337600653       0.65559190429795
C         0.20520611263021      -2.39523757746907      -0.64470636463812
C        -1.09874666600694      -2.09501425150345      -0.90474355680500
C        -2.75568120740106       0.81626980226248      -0.79917563327231
C         3.16048123150886       1.98481023403829      -0.20611958577977
C        -2.03855844710547       1.96065132754069      -0.09572141605624
H         1.90459067844420      -1.32945292343133       2.02431132618220
H         2.40710617071159      -2.54093837633190       0.82212014713545
H         2.51310944454380      -0.54124295365513      -0.87972004157952
H         3.83358667298929      -0.69527809050568       0.33590828399578
H        -3.06284196815197      -0.27768948693009       1.07212447657462
H        -3.51718040713403      -1.18963694048836      -0.38645147415650
H        -0.43952661854077      -0.14804538625964       1.61305032707199
H         1.36243510056922       1.11894300356823       0.52983868498167
H         2.70662258834230       1.06633358040316       1.72573888369532
H         0.89674111231348      -3.04703063973556      -1.16090782946328
H        -1.75969724129190      -2.43727938120072      -1.68958923988422
H        -2.22484956016537       0.61330149148966      -1.74895178182005
H        -3.80466248598459       1.08223933445497      -1.02085521550294
H         2.78026499551409       1.90039155642829      -1.23692206795732
H         4.25199284309058       1.82924874476526      -0.20513949330722
H         2.95842047690897       3.00533454513795       0.15386439440477
H        -0.96120244984601       1.73792430984132      -0.03454512877347
H        -2.46319134933434       2.16063715743614       0.90337363507603
H        -2.11875036472717       2.87882817266478      -0.69621821530514
Cl        0.40524911507246       0.49435550118361      -2.09229659335697
