23
C5H9F6N2P optimized with ADF in AMS.
N         1.18176010974422      -0.21088226434179       0.12978946768381
N        -0.94914309875622      -0.24155122095331      -0.26909929664297
C         0.09437878343618      -0.98828828953300       0.11211961370675
C         0.83178402024282       1.05602957575356      -0.28147601536760
C        -0.50927090774647       1.03788246352458      -0.53103176357976
C         2.55048194068109      -0.69379733511399       0.29468009525397
C        -2.29113646329942      -0.75818357701799      -0.52831387628333
H         0.08752045092532      -2.05980991146512       0.26656086583711
H         1.56180481556246       1.84958797907418      -0.37378981285230
H        -1.18190170479531       1.81515504816601      -0.86972701954566
H         2.54035830483738      -1.60538817098842       0.89898822381245
H         2.94781004901254      -0.93146585351163      -0.70035065622417
H         3.14066142030739       0.08307000493358       0.79398064980041
H        -2.62803611321124      -1.35064446608682       0.32991199389564
H        -2.96780361830614       0.09100909580728      -0.66976296893507
H        -2.25091165097407      -1.38261534524228      -1.42969109288008
P         0.98427349467790      -2.85107252279168      -2.71527384604006
F         1.55009073088422      -3.07874815033840      -1.13886449467435
F         1.15992090372434      -1.19697631080615      -2.49402545507058
F         2.52395725061191      -2.93358778917138      -3.26795899735604
F         0.38955666051709      -2.58310694364382      -4.21421879921062
F         0.78480656356283      -4.46615436307551      -2.86591669740492
F        -0.56848472973882      -2.72494042417789      -2.07015480612263
