32
C10H15F3N2O2 optimized with DFTB in AMS.
H        -0.19421243031981      -1.33417615035267      -5.20304411174596
H        -1.37636491860979      -2.07244943805316      -4.08277595500757
H         0.08574379604120      -2.98264207397486      -4.55928485624442
C        -0.32201758950558      -1.99650018827781      -4.34225214456444
H         3.02050953240091      -0.35534988285385      -1.61246338769004
H         2.39773132447823      -2.02664852545296      -3.73031926103878
H        -1.16191305299764      -0.40776479403545      -2.16251538257650
N         0.40183525324672      -1.41670798240319      -3.22494695242895
C        -0.11364679502430      -0.54711830665906      -2.35427953157998
N         0.88830626270731      -0.10758495785473      -1.58098102567288
C         2.07438023979271      -0.61711544919591      -2.05225020103863
C         1.77010259342513      -1.43666432649413      -3.08640652139144
C         0.74514995064406       0.98929696433512      -0.63111773051249
H         1.74638544641579       1.34224028852373      -0.37335935360042
H         0.20333193760768       1.78975625999816      -1.14630679133508
C        -0.00638098744389       0.52848874996655       0.61872011650267
H         0.54117984819729      -0.29575790527099       1.08734264109283
H        -0.99381226665528       0.15489833532976       0.33028037197106
C        -0.16051581043514       1.68575008607643       1.61032996135164
H         0.83047009385307       2.05827736790809       1.89021011660417
H        -0.70282973547884       2.50526812222504       1.12794940716216
C        -0.91254812057466       1.24525541174933       2.86451351421196
H        -0.37620032383889       0.44111632070597       3.37015712589618
H        -1.91061654029327       0.88893875223027       2.60642256058455
H        -1.01032230973577       2.08464101630000       3.55277264686500
C         0.29094687272030       1.48935874083328      -4.45540060508660
O        -0.40338293529535       1.37502019747656      -3.42930173073673
O         0.69526719256284       0.65223286915608      -5.24694738952964
C         0.76257434014725       2.99933464402081      -4.71226978421204
F         1.56441595765460       3.39810080202838      -3.69917390612671
F        -0.26590949402795       3.85956506440750      -4.75520865009666
F         1.45828032444107       3.15082947120768      -5.84362127162626
