41
C11H9F18N2P optimized with DFTB in AMS.
N         1.85793020894149      -0.18802104092519      -0.96268743094987
N         2.12668091038471       0.69156524467238       0.98037483208558
C         2.21398631264206      -0.44356778369409       0.29407486932312
C         1.55715415358350       1.14032170553416      -1.08496173785117
C         1.72675551860206       1.69678299083644       0.14317324876140
C         1.95854791297927      -1.13624546341006      -2.06032021819705
C         2.54948802787222       0.86828529352501       2.35992767195514
H         2.53188649671946      -1.39598046305549       0.68077508819402
H         1.26248085170840       1.57675281614828      -2.02305058550054
H         1.60705593879775       2.71047380612681       0.48278109927828
H         1.68060818423731      -2.12655010516335      -1.70354992418003
H         1.29711981949494      -0.82365353220702      -2.86570055559116
H         2.99376134926739      -1.15141709354829      -2.40403132319856
H         3.47276999129739       1.44830661565588       2.36320675848183
H         1.77292253778851       1.39382650401436       2.91460756365166
H         2.73495722542823      -0.11044679966982       2.79629490119263
P         5.82871003976720      -0.84350724007500       0.08783021773072
F         4.74057635303327      -0.45289735409995       1.34419172646295
F         7.09689593438776      -0.14931081849106       0.90456137708745
F         4.50295043818738      -1.56194821918569      -0.74435890252602
C         6.07511137291029      -2.48206082214313       1.14152986005205
C         5.32786355648825       0.95794882433697      -0.65431272021737
C         6.94557904104582      -1.24746737428131      -1.51985609739218
C         4.90125537814200      -3.49722280946439       1.22012176509617
C         6.36883451320295       1.95730214613492      -1.24783989222955
C         7.44254250354657      -2.64726080709908      -1.98109293152001
F         6.32978491664876      -2.12278412462222       2.41100848137338
F         7.14839640490922      -3.16342375646099       0.70488864128259
F         4.74713887523178       1.67259886378811       0.34153489928281
F         4.37008764662498       0.82543550438788      -1.60335639864086
F         8.02861235937092      -0.45220764581951      -1.48541475137399
F         6.16697637432389      -0.81203179711196      -2.53978594130716
F         5.16358502657051      -4.45037536315010       2.10991369332866
F         4.65726412696070      -4.08079944829039       0.05299197205572
F         3.76535612504229      -2.89085796053762       1.61069380425954
F         5.79402930782151       3.16757347579398      -1.30990593234083
F         7.44854654329295       2.06572396956595      -0.48615153221163
F         6.74232926684244       1.64032903433486      -2.47948997675056
F         8.55706927953389      -3.00641198095179      -1.35968765707160
F         7.69768832683055      -2.62375730781385      -3.29002317345574
F         6.51029110033995      -3.57730164348466      -1.77217305692981
