45
C11H24F2N2O4S2 optimized with ADF in AMS.
N         0.38408890975730      -0.52286976523344      -0.55446086013258
C         0.61572843232873      -1.74478971044285      -1.42584377039317
C        -1.12263777284788      -0.39844982681548      -0.58248494508840
C         0.84392702543208      -0.78632094883631       0.87360066036206
C        -0.50182732672102      -2.71513479104872      -1.05573758602049
C        -1.64376911078812      -1.83243167306184      -0.48644756272118
C         1.06869596974690       0.68238819649189      -1.15720592963110
C         2.34745640756772      -0.81153069746764       1.06890093357108
C         0.83228346749619       1.98258275408933      -0.41247496260585
C         2.69218339918585      -1.28298915904631       2.48422736692594
C         1.55820741042818       3.11347572461599      -1.14420906179708
C         4.20062074046967      -1.27238387943456       2.72219446627541
H         0.52298423851626      -1.39060785302833      -2.46232298899280
H         1.64079601282955      -2.10983795312555      -1.29094726937109
H        -1.45598360237233       0.26604888343500       0.22356030548471
H        -1.36957386022078       0.05562377133196      -1.55369661225126
H         0.39939012599299      -1.75129518888986       1.15978590714080
H         0.37592971644202      -0.00586858638411       1.49351818655300
H        -0.81466590722658      -3.27716801095458      -1.94657651901031
H        -0.16464446850970      -3.45213583237770      -0.31241470811342
H        -1.86816722577899      -2.10072426694300       0.55638868842201
H        -2.57741837575970      -1.93328404236729      -1.05728294064479
H         2.14029063456919       0.44823051536186      -1.21665989081368
H         0.69020811513371       0.74866642371927      -2.18934106125326
H         2.83355589045963      -1.47327193723709       0.33524175614796
H         2.77886540273960       0.18768602591112       0.90438904653484
H        -0.24622005131597       2.20918276995114      -0.34770317306273
H         1.21984040987745       1.91109050719467       0.61686519960440
H         2.19075408690097      -0.63561385461526       3.22733707213447
H         2.29728004971588      -2.30396439031476       2.63902568091756
H         2.63732221096029       2.90557873154466      -1.19437114483635
H         1.18303633070853       3.21999002549122      -2.17423449630509
H         1.40626717163647       4.07126073981489      -0.62621279076557
H         4.44329656249382      -1.60847934930389       3.74116804737388
H         4.71361759488129      -1.93012815761988       2.00479830669418
H         4.61231399009448      -0.26100554339590       2.58366411429176
N         5.42109076884381      -0.61336956105721      -2.73177329667214
S         5.49459338822148       0.33299532880346      -1.43960988209092
S         4.20145689928090      -1.61581141112671      -2.92744910952877
F         5.84212215154494      -0.72390592691462      -0.21077900830706
F         2.93006209797141      -0.60330633380142      -3.37985419381826
O         6.66557101671362       1.17040907516920      -1.54496408500507
O         4.22289231136642       0.91529877724827      -1.01391397553270
O         3.67892341985484      -2.23104950662951      -1.70667985761486
O         4.42648201407888      -2.42573042320016      -4.10174054985407
