23
C7H13ClN2 optimized with ForceField in AMS.
N         1.08770176314598       0.36349958949340      -0.35233816105416
N        -1.13540263913730       0.36551450051271      -0.39392287031019
C        -0.01576493016397      -0.23992837473474      -0.83511103064514
C         2.47472701875266      -0.03233091409135      -0.58127730421491
C        -2.51382490154357      -0.02938289727487      -0.67239836099232
C         0.65256510368630       1.38830904741781       0.40899866388340
C        -0.72702390490071       1.38928595821090       0.38357853467695
C         3.06095269817666      -0.66371835794691       0.67649355061221
C        -3.13874127146922      -0.67572255031581       0.55864337188703
H        -0.00460223983727      -1.11610013018705      -1.47183045182080
H         2.52707457369412      -0.76993377876962      -1.41168548952006
H         3.07369670136657       0.85755133031477      -0.87156897826569
H        -3.10485610450473       0.86294034897453      -0.97125436050637
H        -2.53863968453263      -0.75712405758865      -1.51280041215540
H         1.28958336035237       2.07848324756628       0.94668526067934
H        -1.38219388343602       2.08020779389697       0.89789848887786
H         3.04601790528481       0.06271981531749       1.51631319875295
H         4.11091253690735      -0.97081013009395       0.48705329499520
H         2.47086763855528      -1.56123870924855       0.95975767333660
H        -2.55464308930123      -1.57382390508775       0.85264469735918
H        -4.18058489452817      -0.98440408569731       0.33071568906498
H        -3.15455033272196       0.04248630568580       1.40550643960728
Cl        5.59206103595466      -0.74415543945408      -2.44974834564793
