50
C14H28F3NO3S optimized with ForceField in AMS.
N        -0.69216025424601       0.54196055295302      -0.19989885813592
C        -1.67312938703127       0.29371399805840      -1.30646218838288
C        -1.23478929109873       1.62676903941998       0.68271211991638
C         0.56969844684088       1.03825443723110      -0.85045999514946
C        -0.44266077328856      -0.69652094652749       0.61928707548263
C        -3.09004604215168      -0.05439319333094      -0.82173035177138
C        -2.65670600119304       1.35261838824806       1.21443348069175
C        -3.63093793919480       1.05215612073829       0.07833546519980
C         1.76645569932854       1.28722899153667       0.10039563513347
C         0.20342961555046      -1.88338247896494      -0.13698141300416
C         2.97212161256449       1.82352916245055      -0.68227278180861
C         0.41296348589922      -3.07663621135107       0.80500659430207
C         4.17730142321582       2.03015949392101       0.23029101511899
C         0.98167743566013      -4.27834404382717       0.05595936187824
H        -1.32221676633394      -0.50301452343465      -1.99455703238116
H        -1.76621051376613       1.20433866322359      -1.94421504174773
H        -1.26598701444166       2.59652835181330       0.13389236512487
H        -0.58400627630433       1.78276555369716       1.56977330981216
H         0.36736751268862       1.99416451387718      -1.38769204169334
H         0.89913947642409       0.33201826429909      -1.64493950296261
H        -1.38414024918033      -1.07328176228969       1.06307183964724
H         0.19188656918344      -0.45270918426366       1.49934059131384
H        -3.10994676483892      -1.03126146229245      -0.29619783572397
H        -3.75802603763516      -0.15410916688739      -1.70454799223037
H        -3.01505971223269       2.25203713052449       1.76071321414147
H        -2.65298948715172       0.51796698511343       1.94592163811569
H        -3.79235799261090       1.97333035821046      -0.52382793421279
H        -4.61057786268933       0.74160572493490       0.50098581696784
H         2.07332003035817       0.34430543557006       0.59749991387950
H         1.50018095732368       2.03257452004542       0.87724062776260
H         1.19198525439350      -1.59769532783895      -0.55090081999520
H        -0.45168369472853      -2.21496675437018      -0.96742740362015
H         2.70915869878340       2.79459503931592      -1.15588895695114
H         3.24963804690743       1.10465708715172      -1.48387505273244
H        -0.55642289483399      -3.37007804219867       1.26412784157027
H         1.11578476063942      -2.79227011442743       1.61846212526198
H         4.48089067241845       1.06635619223632       0.69202897294155
H         3.93477616606893       2.76107514960124       1.03088249843958
H         5.02913820380448       2.42277477533935      -0.36399858762964
H         1.94272417824695      -4.01114378121824      -0.43068892266017
H         0.26498319991945      -4.62385186547070      -0.71913649623413
H         1.16158181472202      -5.11032390895007       0.76875565506774
S         4.99001926537047      -4.96367188167370       0.90354815970333
O         3.80365586832499      -5.16796929239967       1.85687584162990
O         4.57127929869795      -3.73630441888948       0.08167519461976
O         4.84139257301889      -6.12083786998266      -0.09521221353930
C         6.61132577711795      -4.83105987117921       1.70400339561816
F         6.88565146087016      -6.00000650495882       2.38771001155972
F         6.59986403796783      -3.77031003189874       2.58937993155447
F         7.58176755104188      -4.61935583148478       0.74349026601157
