29
C9H16N2O2 optimized with ADF in AMS.
N         1.40346161513621       0.75549726950330      -0.11222171466174
N        -0.58629855435001       0.38790885572924      -0.85441109301305
C         0.70097896210691       0.03354511543011      -1.00682606691013
C         2.85448033418447       0.60420222215918       0.08146799852573
C        -1.71184202814367      -0.24774614798490      -1.55999514152745
C         0.55726057996527       1.57094650933504       0.61412060113752
C        -0.70290168832091       1.33616021721719       0.14440764625622
C         3.20640937479854      -0.79489419600826       0.56413203880768
C        -2.33404581438824      -1.33974992899922      -0.70469458992963
H         1.17626074711233      -0.81945567981936      -1.67055665104847
H         3.34069912982910       0.82250242240094      -0.88187900608228
H         3.15450620505898       1.37948791618983       0.80211111896462
H        -2.42322519082423       0.55304345418318      -1.81735238957747
H        -1.28998366011321      -0.70344233235731      -2.46799425673744
H         0.91786078062025       2.24633552096898       1.38045524644757
H        -1.65721989852069       1.76534115837215       0.42440194989837
H         2.66925678477442      -1.02799711489543       1.49642619155630
H         4.28820841528002      -0.85401616449138       0.75634723988296
H         2.94587205896000      -1.53667791907020      -0.20810888771111
H        -1.59411282429031      -2.14371513204323      -0.57976544593259
H        -3.20277754346744      -1.76236069597881      -1.23081628127067
H        -2.66327591766046      -0.95884557752327       0.27457976488986
C         1.59570423850991      -4.06675317854867      -3.32206656638111
C         1.06953411787897      -2.79464181279727      -2.66367436272647
O         1.97123211508545      -1.94678571404774      -2.30366399286522
O        -0.16905717898083      -2.65856810416598      -2.50611355490274
H         2.39323567048184      -3.82279661167091      -4.03817247672566
H         2.03686735106378      -4.71614529309662      -2.54976646464293
H         0.78263138271353      -4.60976147729055      -3.82016941172067
