64
C18H26F18NP optimized with ADF in AMS.
N        -0.51617324122205       0.37246253651847      -0.45226397705725
C        -1.19214156301324      -0.28635708054664      -1.64975973657638
C        -1.58479648582333       1.00604002722370       0.41587493014515
C         0.26819384206548      -0.62936319059922       0.37717721534340
C         0.40049299672417       1.44829420727616      -1.01296809355620
C        -2.24308674774847      -1.30037761319896      -1.24929699746007
C        -2.66561689442260       0.02296122238168       0.84462678287910
C        -3.31034652458634      -0.66564770891874      -0.35884645644672
C         1.45000048038457      -1.28301597948456      -0.31277805575551
C         1.25315767904741       2.19385506900880      -0.00126859297927
C         2.11965654110243      -2.26370162479507       0.65565066297711
C         2.10972691195175       3.22812223445340      -0.73682268292559
C         3.33425120836875      -2.94735107879829       0.03363872383518
H        -0.40567580611667      -0.71461458480106      -2.27745602750033
H        -1.65005941258992       0.54169320783775      -2.21207525362479
H        -2.02152627204283       1.81368727048482      -0.19315271123855
H        -1.07930984016881       1.45302180511929       1.28236418683346
H        -0.44647696455635      -1.39719099677349       0.69666865667312
H         0.58855142234854      -0.08394940453596       1.27837787857024
H        -0.25932616774423       2.14396706731020      -1.55366771765726
H         1.02381064649912       0.95025274751392      -1.76589341664118
H        -1.77967137672227      -2.17196323606346      -0.75722081782683
H        -2.68049315674552      -1.68237062025601      -2.18599759804044
H        -3.41441233658246       0.59595496590738       1.41626363699654
H        -2.25173003100371      -0.72295924810550       1.54326819396589
H        -3.86988624052814       0.08449517509776      -0.94711142963004
H        -4.03855093982056      -1.41939945492290      -0.02082039560127
H         2.18888991207526      -0.53450435550498      -0.63971151503244
H         1.13184908428887      -1.82343780614502      -1.21508195473662
H         0.62752912636692       2.70360928094112       0.75027817595875
H         1.91633227544540       1.49713670348552       0.53636836957052
H         1.38297729313939      -3.02731062542402       0.96677470652388
H         2.42101268170881      -1.72674399112503       1.57437060315560
H         2.73277125961200       3.78748120356533      -0.02448284781278
H         2.77229703887137       2.74110319711100      -1.46726481970967
H         1.48267271166352       3.94899427171840      -1.28301428545138
H         4.09774063269010      -2.20857857202316      -0.25461831580595
H         3.05038689142573      -3.50078842084705      -0.87306063289278
H         3.79201005894765      -3.65372632167919       0.74186657193907
P         1.30901702503850      -1.16810292743449      -4.97069445094601
F        -0.35706923321272      -0.99807320341874      -4.86930860746917
F         1.18668693910137      -1.85763034728010      -6.46682283989108
F         1.49436555589827      -0.48357454557655      -3.41199799299523
C         1.22617304507478       0.66770173634363      -5.75903148283408
C         1.01104770420837      -2.91490941708857      -4.04102987685363
C         3.29370130299365      -1.41270773813203      -5.14190691841883
C         0.67869419466720       1.84906381015768      -4.88618386516645
C         0.61781716418481      -4.15826736366666      -4.89347944508153
C         4.24189047804953      -0.78257554662378      -4.08149127773592
F         0.38809825635141       0.61200337698454      -6.84834853238484
F         2.42828278175892       1.16716725515055      -6.20863376575320
F        -0.05519384914160      -2.77972483582934      -3.14654824765940
F         2.06999363102425      -3.29228890642739      -3.24725679420812
F         3.71705651979042      -0.93930867049395      -6.35879569379483
F         3.60176436562076      -2.75662052259186      -5.15027017155210
F         0.47031382657343       2.93405207227514      -5.67923105199967
F         1.57503844161387       2.22089585228281      -3.93209939133408
F        -0.49962223477164       1.58229907789091      -4.26204674498286
F        -0.52669216446371      -3.92508409403759      -5.57617582594331
F         1.58337437070056      -4.52038861280708      -5.76006340101259
F         0.39366027809093      -5.22113950289437      -4.06058996319085
F         4.06319568059751       0.55796862843002      -3.97796965348690
F         5.53909174920589      -1.00061741519412      -4.42917954560982
F         4.05646226825551      -1.32981362872502      -2.85247074150324
