43
C13H24F3NO2 optimized with ADF in AMS.
N        -0.46486821081730      -0.41632322202127       0.09330205225113
C        -0.74923244856289      -1.32997044962225      -1.11395416298542
C        -1.54095992388655      -0.80155847674992       1.09604666329456
C         0.89544107587734      -0.71731058625571       0.68932337272349
C        -2.17878918717557      -1.86294079248422      -0.92957885840206
C        -2.76822814411326      -1.07088214602068       0.24754594580976
C        -0.59896820805299       1.02688892325937      -0.34033416488992
C         2.05770880923143      -0.42745271311376      -0.24053762512251
C        -0.27814368553665       2.07231308639672       0.71691659810617
C         3.33290530940882      -1.06908736776831       0.31477231958940
C        -0.55478616025270       3.47402899031211       0.16790950468056
C         4.53842890925999      -0.82252987104961      -0.58736890901909
H        -0.61935901799362      -0.72277612983659      -2.01889367208416
H        -0.00303553396030      -2.14535893703281      -1.07897454503027
H        -1.18532250063330      -1.74643890970417       1.54066458772247
H        -1.63587555498090      -0.01094400534919       1.85015620464667
H         0.85102073584239      -1.79370279150380       0.92291904373997
H         0.96246620786198      -0.14518660166319       1.62819591707158
H        -2.77664179825862      -1.76697993869032      -1.84715245363181
H        -2.11419150680544      -2.92487577621589      -0.65160204268788
H        -3.51004415523987      -1.65340007016194       0.81363199750470
H        -3.25311934104208      -0.13732124496885      -0.08349154768850
H         0.07187414292882       1.14801689479318      -1.20474872614770
H        -1.63199605786891       1.14355900382154      -0.70299016134595
H         1.85734571969193      -0.87115031018422      -1.23096279428944
H         2.21103804311368       0.65895377424722      -0.37808955559377
H        -0.88426780353134       1.91113525527881       1.62387254284521
H         0.78091866864646       1.99631556566174       1.01142181149259
H         3.53278741059047      -0.67584219200336       1.32858590660850
H         3.14673588698373      -2.15304829623164       0.40793729216000
H         0.04614660249518       3.67632583818602      -0.73271006841246
H        -1.61659199662600       3.59627473040591      -0.09725687495081
H        -0.30540913868499       4.24155412122884       0.91481561290555
H         5.44229891272218      -1.30348059204511      -0.18462250886885
H         4.36080375124027      -1.23687627149777      -1.59238929496311
H         4.74829309057384       0.25406913362092      -0.69407641976453
C         0.46837024613551      -4.22212511783342       0.32213550705692
O         1.20264826228338      -3.68899527580280      -0.54666409123680
O        -0.36451062224245      -3.70028784676395       1.10981925160718
C         0.55277462261835      -5.78537485387324       0.42358717031617
F        -0.53871597870021      -6.35118635591826      -0.19751141567031
F         0.54690038807705      -6.22743415404164       1.71753831687392
F         1.66057969478312      -6.31307084320451      -0.16937131082114
