47
C15H29ClN2 optimized with DFTB in AMS.
N         2.95166065309530       0.71908232672456      -0.08181639124079
N         2.67218177973599      -1.42203581176720      -0.14695989252567
C         1.70875337315774       2.83409615916964      -0.07721924475274
C         2.95061741460376       2.08439558988244       0.41611569384053
C         1.03155147944437      -2.96896752124291       0.82859236514010
C         2.47002102228939      -2.77690969446731       0.34709992765378
C         0.41124386543614       2.14932660108129       0.36358536996820
C         0.01030563744084      -2.60185526053159      -0.25340831765676
C        -0.82496804331536       2.91110345149452      -0.12263295785234
C        -1.41864224539453      -2.62525886175936       0.29690372091176
C         2.53080361160614      -0.33641661102487       0.62959156883996
C         3.52141013486078       0.27414318933417      -1.25520360322859
C         3.35454033484263      -1.06783001712346      -1.28965915046955
C        -2.10946346843462       2.17195359027720       0.26635984539870
C        -2.42753383195645      -2.17465178477352      -0.76418582687721
C        -3.35265396570425       2.91268705593728      -0.22231006705278
C        -3.85067136456865      -2.15523324666211      -0.20921238296997
H         1.74595699532538       3.85203263980210       0.32080700290052
H         1.73770316679119       2.89620004811364      -1.16977335779669
H         0.86240672404531      -2.35318812176918       1.71677326652578
H         0.90670678588054      -4.01509588737018       1.12115565524798
H         3.85749443381128       2.58076386963796       0.06150260754265
H         2.97599593382156       2.03412343523116       1.50822628893536
H         3.17269287480989      -2.92279349082850       1.17654555992985
H         2.70879110480270      -3.47032548381517      -0.46294420981781
H         0.39034588616646       2.07400263571911       1.45593263600592
H         0.38401637429538       1.13226624480460      -0.04273212127319
H         0.09665233160880      -3.29932103995008      -1.09342594548598
H         0.23109018715702      -1.59735433428631      -0.63186408139611
H        -0.83200103555348       3.91599091982373       0.31246808746747
H        -0.78109888706708       3.01856671344876      -1.21198790761953
H        -1.48248106482651      -1.95859749658032       1.16400324942416
H        -1.66610521872985      -3.63702516853911       0.63475480334106
H         1.87825581691420      -0.27040304061392       1.47963205207417
H         3.98229366414630       0.94778277319527      -1.95586126175562
H         3.64031148421369      -1.79635825714050      -2.02775747602077
H        -2.09294127362024       1.16549648271130      -0.16670651176641
H        -2.15257901187304       2.06516949203699       1.35543844435735
H        -2.37955554363657      -2.85088670983821      -1.62436470841662
H        -2.16125704399808      -1.17063309393697      -1.11355477202652
H        -3.39956358719883       3.91088573223390       0.21493837760012
H        -3.33735054929617       3.01010937283123      -1.30874645033031
H        -4.25046397517112       2.36495698866549       0.06470613480698
H        -4.54893521785151      -1.83135684246131      -0.98124668303545
H        -3.92188384307631      -1.46714471537135       0.63435266634875
H        -4.14297452772155      -3.15019231090133       0.12897939016708
Cl        4.23133097999143      -0.67798868590155       2.25941167733917
