48
C12H22F6N2O4S2 optimized with ForceField in AMS.
N        -0.10650986908295       0.02003082437250      -0.06563578287107
C        -1.01536779988243       0.52382243221909      -1.14460701781130
C        -0.62639238787671      -1.30081132967458       0.41615511904151
C         1.23485119985765      -0.19230886180620      -0.71036660001344
C        -2.48908105741127       0.63925353595653      -0.72471261977361
C        -2.10191941711446      -1.26416934394266       0.86857712220204
C        -0.01982406513532       0.97775753563226       1.09063578983827
C        -3.00649613204702      -0.70696121320906      -0.22779383573489
C         2.37810256948179      -0.63941162097118       0.23227638872711
C         0.57519894035309       2.36028644063155       0.76984226251408
C         3.66707904153811      -0.85993657622742      -0.55756065168958
H        -0.98742734081428      -0.17438525121131      -2.01275081986993
H        -0.67522178846936       1.50337414038122      -1.54105244167209
H        -0.03041873991389      -1.67373862411636       1.27647684323814
H        -0.54394877967702      -2.06764814792189      -0.38860204946347
H         1.56268820569081       0.73472030217565      -1.23231051864569
H         1.14886815018792      -0.95985931103229      -1.51466083604986
H        -3.08912640476257       0.94877016717792      -1.60788524427010
H        -2.62825621443621       1.42337379531574       0.04736625812100
H        -2.21863738395651      -0.66942363373385       1.79821836838292
H        -2.43022653065073      -2.29767542951526       1.11120658805481
H        -1.01619912740266       1.16406950650390       1.53452195430711
H         0.57171438970807       0.53214929690067       1.91952736133896
H        -4.03893228736905      -0.58565581185192       0.16519780380464
H        -3.04423694799701      -1.42534314230500      -1.07637337306568
H         2.58495935741255       0.13319372260796       1.00027512682745
H         2.12458388079982      -1.59057060788622       0.74189275408820
H         0.58435576623727       2.96659955819997       1.70029733715893
H         1.62237814833662       2.29083749696310       0.41562762619817
H        -0.04117627990739       2.91058600108659       0.03227924309790
H         4.48140627116838      -1.16855250705901       0.13117622334905
H         3.52391627401289      -1.65844655867425      -1.31672482856097
H         3.97271533036434       0.07820981499702      -1.06862286280908
N        -1.64606456342090      -0.44501457259208      -8.11421100340022
S        -1.92891921187847      -0.38079735657337      -6.50138354780934
S        -0.76838558135947      -1.63750747901720      -8.81704017922596
C        -0.66754774877121       0.60870928006658      -5.72760378959363
C        -1.87896044735136      -2.83982619053363      -9.51690271799029
O        -3.26502774349751       0.26295269938951      -6.26184167052720
O        -1.92157164911339      -1.76105718681907      -5.90422933329680
O         0.12851821544152      -2.30710848887364      -7.81261645090805
O         0.06436506194988      -1.04914814976322      -9.92036813915627
F        -0.92161205885974       0.70172639945959      -4.37469431540473
F        -0.67064203318667       1.87554172342335      -6.27899583121013
F         0.57035684910995       0.02655773575583      -5.92222977853538
F        -1.14934862586205      -3.85900127387690     -10.09869982269717
F        -2.66811258659094      -2.23548327939428     -10.47706470472722
F        -2.68568410005211      -3.36248433563471      -8.52414844020715
