70
C20H30F18NP optimized with ADF in AMS.
N        -0.14359899846557       1.31386169749484      -0.10947422419736
C        -0.19351659606073       2.12447962403067       1.16574815461346
C        -0.55466581966555       2.32952475207809      -1.15775882013646
C         1.28478075974846       0.86791825147652      -0.39724937683478
C        -1.11672111622391       0.15464893394147      -0.04361337249168
C         0.35786855614907       3.50192556731064       0.79015807410212
C         0.14440027363097       3.62286611944073      -0.74249994154822
C         1.81934339468153      -0.26383623772524       0.45758591274033
C        -1.25496838462529      -0.64545281292045      -1.32362271262558
C         3.25964967329269      -0.57042953656130       0.02588439396328
C        -2.28180986043751      -1.76539018690171      -1.12264858278516
C         3.81318707173301      -1.83149489874335       0.68624943985271
C        -2.41354315588476      -2.65737681772383      -2.35551022876425
C         5.19828627538779      -2.19463707841720       0.15868511542808
C        -3.47405110758684      -3.73914305731520      -2.18677300393181
H         0.36294557956904       1.59568839360733       1.94906750368749
H        -1.25373652107956       2.17931973634673       1.45346153849162
H        -1.64959061669780       2.41586014846739      -1.08776104392069
H        -0.27783292675586       1.96224949637702      -2.15230825163262
H         1.90881468212132       1.76566928308932      -0.28169641059592
H         1.30342263478050       0.58521804310309      -1.45334982496265
H        -2.08287675369596       0.60461723484824       0.23720052300812
H        -0.78595235511135      -0.47999000500038       0.79198190735443
H         1.42228941893427       3.58929604154636       1.05050798777233
H        -0.17521434583154       4.28392337413184       1.34941938352856
H        -0.47267724009673       4.49064763425481      -1.01307594111842
H         1.10214585768257       3.73193308749005      -1.27063717976230
H         1.21688747446440      -1.17367140901180       0.30985671163831
H         1.79708838928346      -0.01614084934132       1.53392776384889
H        -0.29640155351461      -1.08663852531792      -1.62689483977821
H        -1.58213265334252       0.00075193187020      -2.15435323970495
H         3.91228730349402       0.29219837450780       0.25748310870739
H         3.28307166366894      -0.70354958086674      -1.06948512992270
H        -3.26669890645308      -1.32522898112088      -0.87284539110154
H        -1.98534642941482      -2.38573368131948      -0.25535619545823
H         3.11833984467134      -2.66673433629550       0.48886548204548
H         3.84499401802793      -1.69310071907171       1.78323503498409
H        -1.43753225135847      -3.11922158580384      -2.57079919959808
H        -2.64589552100673      -2.03261405754464      -3.23591007973455
H         5.58443635767182      -3.10396506085766       0.64364279169178
H         5.15961731528021      -2.38173096107647      -0.92554360071886
H         5.91892784539471      -1.38125946371791       0.33965581400257
H        -3.53090608800767      -4.37164492185137      -3.08520215380724
H        -3.24008701757171      -4.39311487142105      -1.33086729599221
H        -4.47147611046567      -3.30195544326307      -2.01657288973639
P         1.20167647643136      -1.98772803986752      -5.37917108093706
F         0.15302337992198      -1.33122369847791      -6.49595345154849
F         2.48783435958966      -1.75915748135189      -6.40072326300946
F        -0.04055944446289      -2.19374736248295      -4.26570082641663
C         1.40737135897574      -0.12678884941958      -4.69398808197756
C         0.73059140294314      -3.73216143424080      -6.19021388185313
C         2.53082668425951      -2.74261677242448      -4.06567778728484
C         0.32445571173386       0.93450266972315      -5.07067432880459
C         1.33733366912836      -4.07103427073787      -7.58351287201887
C         2.08254600120707      -3.37989262341755      -2.71193164384639
F         2.59481795036279       0.46227155446919      -5.04627477495279
F         1.37009856071119      -0.13264851736932      -3.29251872862477
F        -0.63822807583808      -3.76707422027664      -6.36140378270840
F         1.03343750916621      -4.81527629388563      -5.39135832719525
F         3.43223902440289      -1.75515290655605      -3.68539849765428
F         3.28142367563323      -3.70933671839010      -4.68873403343363
F         0.56457817780038       2.08914402178389      -4.33915330635089
F        -0.92907730350739       0.53663564531671      -4.74002065987782
F         0.35926004183258       1.28832230139705      -6.36342491243718
F         0.79159112838239      -5.23733731593109      -8.03967763849813
F         1.07370481144751      -3.11146299030950      -8.49808488844299
F         2.67687771943377      -4.25302337580345      -7.51113843819825
F         1.56078982094131      -2.44074396249696      -1.86476740870766
F         3.16835279148741      -3.91131269756483      -2.07697791845153
F         1.16711772180221      -4.35749943080902      -2.83847880326962
