47
C13H26F3NO3S optimized with DFTB in AMS.
N        -1.73279712516810      -0.11538548497966      -0.15221508720683
C        -1.77831442206604      -1.10213401088019      -1.28397845976232
C        -2.81242282860833      -0.62230417687684       0.75246265669256
C        -0.40986340849733      -0.15353663530955       0.56568741654669
C        -3.25747520163574      -1.37676485545416      -1.52030569681756
C        -3.93587422646410      -1.09241092552218      -0.17075415712649
C        -2.04995186958606       1.25188516182124      -0.67923080190263
C         0.75591427582701       0.36850736033919      -0.26928928134193
C        -2.02146154126912       2.35908366210966       0.36424981420567
C         2.08609435196680      -0.08452731565670       0.34932360758550
C         3.22807235938823       0.08385269206377      -0.65653687515712
C         4.54592517106127      -0.44766842359996      -0.08597313041766
C         5.68344680375418      -0.30623891461445      -1.09570906220881
H        -1.27790744906457      -2.00642573626334      -0.94231891921064
H        -1.25423245707290      -0.70924975796984      -2.15336720426438
H        -3.11626122790061       0.15590704464335       1.45152253439855
H        -2.39284212340450      -1.46152925975686       1.31114999301584
H        -0.23442203390157      -1.20256091250484       0.81636146846770
H        -0.52655446136400       0.41461221208168       1.49200659641937
H        -3.39207786848404      -2.41456058689273      -1.82902216564578
H        -3.66514110859192      -0.73362258932118      -2.30333538146072
H        -4.70443386078354      -0.32314268530458      -0.27266652312939
H        -4.40455113751506      -1.98728488021296       0.24151001122028
H        -1.32135778289799       1.46376991258821      -1.46468353348040
H        -3.04118822516180       1.19985505989000      -1.13438771703111
H         0.69032890895274      -0.04155655711037      -1.27855974182703
H         0.73202886595878       1.46017405060539      -0.33975231937352
H        -2.32881214631053       3.28281782094460      -0.12579560504692
H        -2.70994174911423       2.16394298671911       1.18483218831084
H        -1.02200999924595       2.50555388473114       0.76873964358337
H         2.01200342465332      -1.14115520269061       0.62151649899718
H         2.28808319439119       0.48843519024956       1.26086098685037
H         3.33659111063796       1.14112784130361      -0.92425641396293
H         2.97816620248352      -0.47308237060265      -1.56532100522504
H         4.79836998774228       0.09885401193669       0.82987375668210
H         4.42377050432740      -1.50366544779624       0.17484632969854
H         5.83216880796096       0.74136259778657      -1.36342883559188
H         6.61104120586523      -0.69140640080576      -0.67115949364263
H         5.45721950413110      -0.86768866637440      -2.00297318704102
S         0.69446927825579      -3.17046255584722      -1.53456255205600
O         0.87766644110316      -1.95097203496235      -2.31433787648096
O        -0.35809919136250      -4.03623324121336      -2.01920464509323
O         0.65650231027725      -2.93703325451915      -0.09163921676528
C         2.27759683248756      -4.09027619817183      -1.78951029675277
F         3.29625432289147      -3.36462570640933      -1.32892536289187
F         2.48718161636112      -4.32773363738310      -3.07777009882279
F         2.27013812259222      -5.24945689020733      -1.14381995493693
