28
C8H18ClN optimized with DFTB in AMS.
N         0.12503320678014      -0.14718723669888       0.00933338526059
C         1.09619366224769      -0.87140959772797      -0.87864808363156
C         1.00667745390330       0.51157847323133       1.03673904388244
C         2.28762661639213       0.06518132823510      -1.00022131316727
C         2.35418373283446       0.76831098562669       0.36029914612710
C        -0.79898883299307      -1.11603574054711       0.68847712353806
C        -0.60479117749766       0.88409759584539      -0.79858696453229
C        -1.69308128232689      -1.88343119076606      -0.27098752930053
C        -1.71566285885192       1.60845434846450      -0.05041226027732
H         0.62468155363649      -1.11087453839180      -1.83147006841133
H         1.38943642472307      -1.78244929067578      -0.34693450484312
H         1.13209864006568      -0.20162253898850       1.85447905058414
H         0.52564451574462       1.41770777627566       1.40328841039177
H         2.14405486070903       0.78356378470337      -1.81213667780607
H         3.19486319762256      -0.50557308559510      -1.20223978377236
H         3.14468236756614       0.32992693068428       0.97304257257897
H         2.55213064963457       1.83559135546671       0.24513406472141
H        -0.14981676066081      -1.81417441265146       1.23108823569839
H        -1.39330060081225      -0.55131210888309       1.40966844302678
H         0.14202747495024       1.60633484370670      -1.13598104527765
H        -1.01889642124857       0.38195173026409      -1.67621158361216
H        -2.28559314906295      -2.58259752445721       0.31846449358017
H        -2.37542516128153      -1.23128479391246      -0.81548289960323
H        -1.10342451912278      -2.45595658290311      -0.98499004454341
H        -2.07767573129449       2.41311276593509      -0.69017716651402
H        -2.55110029969476       0.94621199178460       0.16840828801054
H        -1.35985465764989       2.04657608563733       0.88036334687949
Cl        1.96285107318750      -2.39971878516233       1.78314706761250
