36
C8H18F2N2O4S2 optimized with ADF in AMS.
N         0.76095896803622      -0.03621521749755       0.01198874734951
C         2.14588039957868      -0.59380612254851      -0.26679322666213
C         0.86829678214851       0.33436928370393       1.47403650721958
C         3.09938343928678       0.33897336724131       0.47507319811229
C         2.25228190960333       0.96858268312260       1.61473582511661
C        -0.31210129244906      -1.07763903441357      -0.21057798652513
C         0.54074815525385       1.19625011144801      -0.85219981344780
C        -0.44850147461064      -1.52273188671665      -1.65310582697612
C        -0.78822335100968       1.88983236974589      -0.63783686091319
H         2.32271325069776      -0.63882622023429      -1.34442228035771
H         2.15290946512126      -1.61347897377780       0.14694288372598
H         0.80187701292757      -0.61279599544795       2.03051863660062
H         0.02447183736978       0.97367797676618       1.75989658184269
H         3.49564465163005       1.09913800186796      -0.21346647851895
H         3.95790697780724      -0.23123212929754       0.85445888219293
H         2.66189309893902       0.75866991264970       2.61296914476309
H         2.19596331268984       2.06237772133047       1.51199910744687
H        -0.03317969258450      -1.92292877930777       0.43713361441400
H        -1.24781271430954      -0.64899394501103       0.17845357598433
H         1.38246414973938       1.86964272864589      -0.65047075249105
H         0.66008655206829       0.86205750823426      -1.88897286091355
H        -1.18118327203809      -2.34312312616602      -1.68620186106255
H        -0.81937518638825      -0.72045642602395      -2.30544955929208
H         0.49825470001168      -1.89811574669069      -2.06973217723729
H        -0.80629344861154       2.77150075275681      -1.29564746342907
H        -1.64560954546472       1.26076577583707      -0.91570104291274
H        -0.92893955385112       2.25267508547433       0.39072074620045
N         3.93224745044083      -0.32986661814824      -2.91034517839366
S         3.11667418088750       0.78964950026733      -3.69394392477129
S         3.95995026721414      -1.89847386550360      -3.28150346802810
F         1.53120386693525       0.17842101955804      -3.74353895765454
F         4.19948366290595      -1.94363992521815      -4.90281684222705
O         2.98956056230520       1.93139355540473      -2.79687877778719
O         3.43419536544265       0.98357659157445      -5.09051768220413
O         2.66955649522100      -2.54779764157581      -3.08650205353948
O         5.14670209195535      -2.47342808654982      -2.68658572712414
