22
C6H8F6NP optimized with ADF in AMS.
N        -0.82203830386390       0.08100814949710      -0.13855504402967
C        -0.16842914469157       1.25937747728834      -0.09065844538935
C        -0.17143014794463      -1.06037569975258      -0.44937389314755
C        -2.28848898163797       0.04116874657304       0.00156399800415
C         1.19322346568928       1.31597197656192      -0.31141891551635
C         1.18854447917099      -1.05328719508828      -0.67934475339845
C         1.88475917095200       0.14845602897320      -0.61229795710694
H        -0.77704715420899       2.13836594749222       0.10457341725397
H        -0.78525061212364      -1.95481809661128      -0.52372559947622
H        -2.55481703629865      -0.77332960305994       0.68615365390609
H        -2.63398596524795       0.99864135396731       0.40263942595641
H        -2.70277334547817      -0.11909896694612      -1.00277954457118
H         1.69194366274252       2.28387999260803      -0.28518332897684
H         1.68278323958624      -1.98553176794645      -0.94912932403639
H         2.95424349907887       0.17941124165571      -0.82501559548314
P        -1.16696014103074       0.61727635340365      -3.74884511390752
F        -0.84033547704307       1.97547695094946      -4.59843527596097
F        -1.62982341795587       1.56110772380888      -2.42574472327632
F        -2.72539372923394       0.60895837063844      -4.25781763263024
F        -1.49414078571113      -0.76135983615583      -2.81856918280396
F        -0.70125124050552      -0.34050217995730      -4.98930780515482
F         0.38257876275584       0.60410998270048      -3.13607280405470
