38
C12H22N2O2 optimized with DFTB in AMS.
N         1.06952970973752      -1.64498455872878      -0.99759135254967
N        -0.65841599778260      -1.27789654705258       0.20166463081529
C         2.46040014668133      -1.76945366598245      -1.41537571659182
C         2.89330655042999      -0.53533719959156      -2.21103354640560
C        -1.47493124057044      -0.92321036605116       1.35384211975054
C         0.67639274956312      -1.35998742113503       0.24545006661136
C         2.82723237544383       0.73806719526451      -1.36283172922552
C        -0.01506113755233      -1.73295547669115      -1.83455045696264
C        -1.11405519142507      -1.49782455021172      -1.07318405787474
C        -1.71486055839197       0.58962000905688       1.40358108073926
C         3.33151577303314       1.95127794088479      -2.14036459882832
C        -0.41485757102138       1.37305944449331       1.57079897285746
H         3.06347082008502      -1.86560203561367      -0.50794172485229
H         2.55794757117787      -2.67214730736433      -2.02544962294380
H         2.26206572129711      -0.43176781127585      -3.10044548136030
H         3.92218613649343      -0.70276479087646      -2.54382592386803
H        -0.94002331985557      -1.25130150261082       2.24945799147107
H        -2.42553640965062      -1.45899000308939       1.28247474260215
H         1.28788581210102      -1.14725857953437       1.27705612815164
H         1.79223546622299       0.91228109379304      -1.04948908026546
H         3.43026108468149       0.59843594286328      -0.46095861472638
H         0.08247306632604      -1.96041831278806      -2.88191657421785
H        -2.15991572468127      -1.47909916824985      -1.32617823181793
H        -2.22819624545089       0.90523236382024       0.48943564444301
H        -2.37792346018769       0.78949703897754       2.25054140791826
H         2.73477099968031       2.10852652112338      -3.04080007623156
H         4.37281596676980       1.81186209435340      -2.43425366790766
H         3.26376871553063       2.84423499449061      -1.51867419043619
H         0.20854877168350       1.27297630375288       0.68208162158755
H         0.14844161029012       1.00233958192134       2.42746095022828
H        -0.63623675185548       2.42947671984493       1.72121115445313
C         3.85916820663311      -0.35102817130770       3.60977933637166
C         3.04871268243767      -0.70528599661406       2.35649889328141
O         1.79158076682178      -0.81021534008081       2.52523875148595
O         3.64268205011435      -0.87423991833457       1.28982159732129
H         4.71573721753870       0.26164432165699       3.33613858260523
H         3.23537980613211       0.17026287940771       4.33289621268879
H         4.21942672501934      -1.27859913132044       4.05421002468250
