66
C18H34F6N2O4S2 optimized with ForceField in AMS.
N        -0.01586279155241       1.98891423594833       0.00356645462675
C        -0.68515855980878       2.89456862324738      -0.98043651260000
C         0.63593727751522       2.90422493003832       0.99025892999805
C        -1.03493482966268       1.14672566242175       0.71057483453465
C         1.01925698707260       1.16885430275038      -0.70566241212915
C        -0.20593558911595       4.30982910552990      -0.72356868683708
C         0.12381833363199       4.30932224330867       0.74229559535622
C        -1.77990816221919       0.13569408025243      -0.19328495282992
C         1.78475724703825       0.17204814273372       0.19639005171965
C        -2.87405431160102      -0.58823169016839       0.60158970466529
C         2.88773513262258      -0.53347136856321      -0.60182420795397
C        -3.62788910719198      -1.59427664650654      -0.27629750772230
C         3.65349650339809      -1.53436725701754       0.27119694169911
C        -4.69105798557991      -2.34436778688790       0.53523971314373
C         4.71151100698329      -2.28005910107461      -0.54985085132840
C        -5.44548918391214      -3.34605956294148      -0.33468349794105
C         5.49653784512825      -3.25965035288066       0.31779874565630
H        -0.48811866587580       2.61721087962499      -2.04168244153053
H        -1.79274691281034       2.90337723054922      -0.86039078374414
H         0.44898022161457       2.61665003821501       2.05057300233566
H         1.74264850009727       2.93907707999214       0.86635610001473
H        -0.56451522774565       0.58525315174062       1.54770002739760
H        -1.79187037804161       1.80842170192583       1.19308725672639
H         0.55917576200432       0.59947643349457      -1.54324130748002
H         1.76267500291238       1.84621985044750      -1.18759945300808
H         0.71281947021960       4.51218619557263      -1.31801798615671
H        -0.98621698266811       5.06260528793133      -0.96968342965575
H        -0.79931021778458       4.48641571952143       1.33799935031617
H         0.88642424516885       5.07851793788641       0.99300851206289
H        -2.24427304863006       0.65292591322611      -1.05913234726394
H        -1.07214246767323      -0.62715944192606      -0.57887314734757
H         2.24368395705898       0.69780364749633       1.06006402273804
H         1.09163966081564      -0.60258233908142       0.58479091742618
H        -2.40638746672962      -1.12395443106998       1.45714548725065
H        -3.59384992210901       0.15902085813412       1.00283894669207
H         3.59834264909788       0.22494379964431      -0.99887946263416
H         2.42699507115183      -1.07056337738864      -1.46025061399138
H        -4.11863285283760      -1.05274738342691      -1.11496559940771
H        -2.90615305251718      -2.32669691790629      -0.70059701772517
H         4.14872611719390      -0.98840043385211       1.10447403935214
H         2.94008773922474      -2.27064791994265       0.70280627998073
H        -5.41803010839694      -1.61931417426464       0.96219494979190
H        -4.20596707468431      -2.89104736661769       1.37337876705613
H         4.21954000384316      -2.84305492598858      -1.37287881742690
H         5.41731167408290      -1.55023762182932      -0.99976901869700
H        -5.96675680195187      -2.82179029324297      -1.16368317549116
H        -6.20238638447598      -3.87740403838174       0.28006710986372
H        -4.74359266785803      -4.09579517140574      -0.75800711634008
H         4.81477484047461      -4.02208368627489       0.75131201426958
H         6.25880587111723      -3.77744003010450      -0.30179122357486
H         6.01449167128482      -2.71997565572590       1.13902550815276
N         8.53412860101258       2.32462786268434       0.22702601980409
S         8.02202780909992       1.95346451194014       1.74006213510374
S         9.56368543151400       1.37461513228782      -0.62600704572938
C         9.12012621310246       2.70216633451063       2.92595233589846
C         8.62209825212207       0.36683624009305      -1.75041374725272
O         6.63961137173121       2.50609163939977       1.94448438596345
O         8.00120136127564       0.46378037088475       1.94317146748384
O        10.36245177321855       0.49150996857660       0.29202684221458
O        10.49552662572866       2.24408340737568      -1.42200878094160
F         8.68653886242318       2.41852862620521       4.20695389095554
F         9.13355169945837       4.07152071525376       2.74049709541731
F        10.39754374435292       2.20514158488790       2.75434076474309
F         9.47328320751541      -0.44198561470514      -2.47887940989533
F         7.91128668086457       1.17904442100402      -2.61337710946895
F         7.74369571956151      -0.42069676416156      -1.03375945880618
