37
C9H20F6NP optimized with ADF in AMS.
C         2.22949966105475      -0.16084804730880       3.26302714204507
C         1.58730099062455       1.04630607584855       2.57960580330828
H         2.04744793705850      -0.40004091381234       0.33580253598438
H         0.58472216650332      -1.43014019133618       0.59300586198610
H         2.97126792864698      -1.79403847544088       1.98038880156060
H         1.41417738490550      -2.14493703674115       2.76657126276622
H         1.78357268795726      -0.36460465965467       4.24805686804910
H         3.29837246251250       0.04629176603557       3.40855409965998
H         1.04802110213944       1.73070605468390       3.24952173459673
H         2.32565781042508       1.59917833014747       1.98220239811666
H        -1.32156590264962      -0.46935342937324       1.62645097133479
C        -0.65531476449976       0.07041084843319       2.30869702758704
H        -0.38617374613107      -0.57761015806321       3.15106119018846
H        -1.15047640338340       0.97772383619567       2.67882313994270
C         0.29538483172100       1.49163791410858       0.50216327273467
H        -0.15414891791568       2.33909407163763       1.04455047173046
H         1.27805831364318       1.80739255230087       0.12058943411438
H        -1.43278738949272       0.38935967519423      -0.26843503043135
H        -0.34756071695036      -0.34778617821987      -3.83225512868592
C         0.09375610954816       0.37174016342153      -1.82618369370609
H         0.91312053620920       1.02984098249310      -2.15984802280906
H         0.57717399597726      -0.57118705851982      -1.52624648842216
C        -0.87115218606637       0.10500088563834      -2.97749005692315
H        -1.33667944326805       1.04036174561278      -3.32816499068596
N         0.58949849285352       0.46596089097169       1.58497387398967
C         1.31592657375078      -0.76476206401299       1.06971439389936
C         2.01521020166956      -1.35311031887671       2.29381768829566
H        -1.68055237014566      -0.58052989885946      -2.67638577396999
C        -0.61165309613917       1.03037559912731      -0.63716865323437
H        -1.11279822634643       1.94384404964564      -1.00683107969745
P         4.45681635200486       1.45444417454586      -0.31187917477349
F         5.43545165571333       0.33890348745987      -0.99778126022194
F         5.69929136252706       2.13774074183534       0.49918364605485
F         4.63805442628902       2.47650396478248      -1.57374586897432
F         3.38614996194801       2.54393629243370       0.41103104847355
F         3.12625701804884       0.75370309799816      -1.07483797968884
F         4.18298598235663       0.41521257296789       0.98485810280535
