34
C8H11F6N3O4S2 optimized with DFTB in AMS.
N        -2.00337855016423       0.13180447051966      -0.57459892265308
N        -0.65093184023704      -0.54322298424511      -2.10451690102175
C        -2.97313618624202       0.08818073295111       0.51536822439949
C        -1.28745068402599      -0.90719741045957      -0.99431810497548
C        -1.81285643771552       1.18510651826684      -1.42691813870209
C        -0.96066222629121       0.75780054066188      -2.39477238664514
C        -2.50543180526528       0.93713728844064       1.68938791584291
C         0.07093800162506      -1.45044111555813      -2.98271947144557
H        -3.92446522723253       0.45135345403973       0.11688004480202
H        -3.09234185549015      -0.95891714309228       0.80182438126333
H        -1.24869349004873      -1.87964177197049      -0.53470485480178
H        -2.30958163832708       2.12974159753835      -1.29332588889469
H        -0.57306754349436       1.25821500414639      -3.26446083515002
H        -1.54515156375709       0.57897035988007       2.05977285486975
H        -3.23953338810055       0.87175235069009       2.49094213667939
H        -2.40129523008148       1.98026149162886       1.39206410669828
H        -0.63491465774903      -1.83264709176926      -3.72457354416584
H         0.88074809997480      -0.91260788485950      -3.47243726400223
H         0.45909403126436      -2.27951347422746      -2.39515521552056
N        -3.00400213308425      -2.29303971150626      -3.73461887226631
S        -4.36433076777321      -1.63289179334125      -4.29910312275337
S        -3.10441724944796      -3.01693947361141      -2.31083488155243
C        -4.36319723751116       0.13705855944608      -3.67640894735810
C        -4.19029633188101      -4.55246661626702      -2.43672661209349
O        -4.19781783246920      -1.45968816168518      -5.71377874461882
O        -5.57881295793151      -2.21043227275092      -3.79066018816801
O        -3.69567448412056      -2.21946733078801      -1.24479956924645
O        -1.77269048995590      -3.53430351499889      -2.04358377798834
F        -5.36701104754483       0.81238374790173      -4.20290572782176
F        -3.21952754524235       0.72802379918985      -4.04124961748652
F        -4.44620760582378       0.22414428594142      -2.34995474746814
F        -3.56255499546265      -5.55007161864171      -1.83412615124748
F        -4.38782018259920      -4.87276834225913      -3.69985260379014
F        -5.34387092719439      -4.34921203671113      -1.83825517401760
