40
C10H22F6NP optimized with DFTB in AMS.
N        -0.23684815571976       0.05860003813069       0.06134328470436
C        -1.16782355142981       0.63196643943359      -0.97159533467610
C        -0.41746228648453      -1.42954878412485       0.15749934466045
C         1.16247405574151       0.37220021048055      -0.41635787290578
C        -2.62191686722057       0.22727840060703      -0.77008703008218
C        -1.86493010331763      -1.85015956100337       0.36410518320252
C        -2.74966726990241      -1.29414995198635      -0.74749401402750
C        -0.47150784277431       0.70313912801823       1.37825278579192
C         2.28809593672123      -0.16825194540438       0.45958220781163
C         3.62646156257030       0.09216239411752      -0.24491432990292
C         4.79107381536711      -0.44785163862484       0.58082257206926
H        -0.82276563260431       0.26586892365895      -1.94032699582671
H        -1.05526807397498       1.71840352097145      -0.93876647930902
H         0.19805614918474      -1.78190853580069       0.98650980144402
H        -0.04149061318882      -1.85162773126553      -0.77327853875181
H         1.22925468322618       1.46132213882645      -0.49125291699302
H         1.24880255420192      -0.05687473625241      -1.41545087629407
H        -3.19025824224645       0.63953590713282      -1.60782178228497
H        -3.02673168080231       0.65714497734912       0.15145275750683
H        -2.23427122238281      -1.52644497061112       1.34258052365544
H        -1.88391011275865      -2.94260912338282       0.34181462782983
H        -3.79033970419311      -1.57840310097319      -0.57667930227936
H        -2.42990717676457      -1.70617974481214      -1.70902102715624
H        -1.50496791799791       0.55371040971586       1.68052866545548
H         0.18905745374808       0.25539261011493       2.11729982574612
H        -0.26455067588263       1.76864811605120       1.29296160292514
H         2.17759764219281      -1.24559495565239       0.59768664561740
H         2.28590988129543       0.31264273140494       1.44268497936273
H         3.75359111370655       1.16771278882134      -0.40737251460695
H         3.61298315742459      -0.40146865089922      -1.22082607873539
H         4.67913165601658      -1.52172694615122       0.73530341243033
H         4.83478219088027       0.04288781386709       1.55449138650327
H         5.72979455522602      -0.26853758489184       0.05732044239735
P         1.10872811424021      -2.56500882773320      -3.13622794917216
F         0.30669805923618      -2.85628744585327      -4.51849675573164
F         0.24397952158766      -1.11211579586420      -2.95404649333963
F        -0.09503530284534      -3.31070422475515      -2.26188501024291
F         1.87720845534240      -2.20711101544922      -1.67805215067260
F         1.93577912954470      -3.95632435422266      -3.23761498707113
F         2.27508689473643      -1.74022609058766      -3.92555329635198
