40
C10H19F2N3O4S2 optimized with DFTB in AMS.
N        -0.28440804481485      -0.37018263911658       0.87513363359484
N        -2.26787772285226      -0.62993772801006       0.08040363438274
C         0.87430974966272       0.23807552379357       1.52534262040003
C         1.81843497842967       0.83028932418767       0.47502683397229
C        -3.66629339770392      -0.37002669073000      -0.25842593103736
C        -1.50880022342509       0.14893692002807       0.84775004733856
C         1.13950323774516       1.89837446309852      -0.38859766873565
C        -0.25703223416307      -1.49942295671515       0.10165308445384
C        -1.50993956329970      -1.66529181248121      -0.39830897473629
C        -3.81719225657834      -0.10140364574120      -1.75831511001644
C         2.11378548076683       2.48138523382311      -1.40842790173838
C        -3.08832659110566       1.16577546072358      -2.19677916846121
H         0.50896040285064       1.01102675271432       2.20324076517714
H         1.38264024249184      -0.53787517076227       2.10398691227875
H         2.20362578363457       0.02460957643630      -0.15916196932493
H         2.66390866864266       1.27114619990573       1.01069430023463
H        -3.99119559789231       0.49660762013318       0.32270078201689
H        -4.25327571064319      -1.24518947165595       0.03482750712408
H        -1.84501481426564       1.02824159833702       1.38702498463491
H         0.28534094025612       1.45651635549640      -0.91228692466749
H         0.76038139616643       2.69768618313017       0.25234970009449
H         0.63476771769232      -2.08813071938339      -0.02349375443210
H        -1.91547219802807      -2.42799671780192      -1.03956880797365
H        -3.44692715168755      -0.96423585595983      -2.32111230682397
H        -4.88677939228140      -0.00041665298618      -1.96279081978361
H         2.49009114039769       1.70218867845243      -2.07372656342100
H         2.96108572728114       2.94796645673306      -0.90462809821627
H         1.60783659653259       3.23725642007644      -2.00847628779334
H        -2.02328923976473       1.09369728992115      -1.97483773410184
H        -3.49386194553700       2.03294998207882      -1.67864644668193
H        -3.21284926381357       1.30741080198295      -3.26977634967699
N        -2.48996208516883       2.61215665401390       2.34496751360306
S        -1.12959503263263       3.04350902462674       3.06623906858168
S        -2.90197814304657       3.41400226313245       1.03928115340184
F        -1.54326755202934       4.31861716586002       3.94207821140251
F        -1.75398183835766       2.92110386731326      -0.04251524106322
O        -0.82558129350851       2.01726936786346       4.01392129268248
O        -0.07788291459025       3.50087357759911       2.21151371319537
O        -2.79217925110129       4.82976079422834       1.04917297883141
O        -4.08869007855893       2.79451607215400       0.53216288728413
