44
C10H20F6N2O4S2 optimized with ADF in AMS.
N         0.50054021778787      -0.27737142775078      -0.06628481536484
C        -0.53101011358574       0.14317954677139       0.96220117271020
C         0.09039634164314       0.15508325976512      -1.47491426051609
C         0.63411120961035      -1.79406513051934      -0.03346456487485
C         1.82918140751759       0.40061360170823       0.26696964079785
C        -1.93418587875310      -0.39103777910405       0.73901055193961
C        -0.39365959951363       1.58737566204862      -1.58921349505834
C         1.70460004608956      -2.37317575414965      -0.93321197432446
C         2.50627102253819      -0.06609382320985       1.53744267151865
H        -0.14358454395010      -0.19163559523293       1.93398272393468
H        -0.52574245875147       1.24185335639370       0.96125267995047
H         0.98071974506953       0.00023820685686      -2.10186683103126
H        -0.69014500150945      -0.55085525102904      -1.79485400380671
H         0.81370472288706      -2.05385813135335       1.02023598812094
H        -0.35596626618441      -2.17925114912156      -0.31278640669653
H         2.48709607269779       0.21803049899467      -0.58859236306128
H         1.61134346030507       1.47609374622862       0.30580762286116
H        -2.59147347251900       0.07456345964983       1.48878422401393
H        -2.33345904183190      -0.13346879412809      -0.25132611115335
H        -2.00138175687651      -1.47835026750583       0.87863919050710
H        -0.56081120270688       1.78685422269621      -2.65785001885606
H        -1.34178452474202       1.76989039352010      -1.06401778410373
H         0.35903995795557       2.31396387584953      -1.25732944986989
H         1.68219193498998      -3.46624132702343      -0.80286114055841
H         1.53069163755055      -2.15580286048187      -1.99492816081004
H         2.71549728512037      -2.02096333709526      -0.68862289872000
H         3.43361925926198       0.51988529203519       1.62678010625323
H         1.91307600264972       0.10422680451744       2.44743664473639
H         2.81163545294840      -1.11966404755875       1.48290522421601
N         4.94240475611010       1.34338599759225      -2.41387019478846
S         4.37318234330795      -0.14325527287445      -2.43382467633571
S         4.57741236577439       2.45338607817526      -3.54063438696282
C         5.51884174404534      -1.16922343743968      -3.53851298260421
C         2.87964587726413       3.11024228911927      -2.98597639633915
O         4.60455170687421      -0.72011609348171      -1.10393333910180
O         3.03755793974674      -0.32564832902851      -3.02498552472197
O         4.33618898431231       1.93903777778839      -4.88066803243054
O         5.45125580936652       3.59047120615413      -3.31172047860492
F         5.32259036628941      -2.48553789922054      -3.25645480119449
F         6.81172079019267      -0.86598120783283      -3.29506479953309
F         5.25601820425968      -0.96817079270945      -4.84371658703298
F         2.73062690775158       4.39463876747517      -3.38107331628058
F         2.74143194575022       3.07463355323637      -1.62385655997978
F         1.86316145485623       2.38742767197459      -3.52157457274383
