61
C17H29F6N3O4S2 optimized with ADF in AMS.
N         3.16625592985883       1.92768620741794       0.05733530883150
N         3.50480620916599      -0.20933884227763       0.18824031354807
C         1.29559819055139       3.52629269872580      -0.16162385011275
C         2.69399467174313       3.27256996945158       0.39751027410505
C         2.24947121639660      -1.99720406440368       1.35626897131133
C         3.58004147854007      -1.57028735110805       0.74871351795031
C         0.23087967143388       2.57659120868300       0.38422123479227
C         1.08592028921121      -1.96327353800363       0.36680335587170
C        -1.17526770280780       2.89227590220271      -0.12346570195412
C        -0.25864442715121      -2.27338853549124       1.02036063086897
C         3.01950963944269       0.85445227458537       0.84215115528596
C         3.76321067291861       1.54484710877058      -1.12425389550460
C         3.97745919092121       0.19939750936652      -1.04240393838905
C        -2.23405297796314       1.93476184132376       0.42133709809075
C        -1.42883931878531      -2.22095722888477       0.04015483290234
C        -3.63695658911122       2.24793791543339      -0.09231779374819
C        -2.77258791602759      -2.48735159718846       0.71284868877886
H         1.03144741852099       4.56968109317821       0.08542279190274
H         1.32457173808741       3.46271401919863      -1.26522753037733
H         2.03808238790726      -1.36578063001270       2.23686302624496
H         2.38885072766824      -3.01801940578427       1.75203500925898
H         3.44001357278150       3.98084029371460       0.01173559593893
H         2.72575174625250       3.34010586828401       1.49513690060697
H         4.38673560562715      -1.57465605945023       1.50018486559350
H         3.86466774192561      -2.22630911342276      -0.08746027134105
H         0.23822654381830       2.61578747895100       1.49018527125156
H         0.47963499047671       1.53633988394535       0.10475960884045
H         1.27465491633658      -2.68073701200788      -0.45455836777098
H         1.02523509004277      -0.96521420297876      -0.10558195086695
H        -1.44255315124218       3.92882995927205       0.15544591654554
H        -1.18411661852372       2.85654782795486      -1.22947009414887
H        -0.43741731938845      -1.55210212404590       1.83956335640177
H        -0.21982350774825      -3.27314771681448       1.49208677528546
H         2.61487354071879       0.84379137910747       1.84884571448612
H         4.00965885833940       2.25968490091828      -1.89914324699443
H         4.45375651210492      -0.48851978320015      -1.72910613702864
H        -1.96311080975276       0.89956625612674       0.14734575247542
H        -2.22439413517052       1.97526595530587       1.52619119475183
H        -1.26210748590550      -2.95559974154710      -0.76886654271502
H        -1.44893019405082      -1.22787266317352      -0.44521720406810
H        -3.93985067923858       3.27004868574670       0.18703291607533
H        -3.68111099092709       2.17569091602837      -1.19108341383677
H        -4.38107462439496       1.55063799609778       0.32233862368540
H        -3.60176321015366      -2.44537529059168      -0.01014575392245
H        -2.97123901179881      -1.74304025332259       1.50046131783966
H        -2.78548144681671      -3.48304354780742       1.18501050593707
N         4.72587274143329       1.79149595702718       2.84784318533298
S         6.08830198045116       2.53058772221761       2.39252573762077
S         4.55671485383782       0.55630369056829       3.85705615219521
C         7.16592617200048       1.25125021759347       1.49286179191699
C         4.94626560613953       1.16173835967667       5.60735305159950
O         5.69152199102045       3.43259601032477       1.31357651830653
O         6.92915621883332       3.00013152891609       3.48164611237229
O         5.47137473292149      -0.56205184668125       3.63792386830782
O         3.11285148329004       0.28422673872205       3.89064498703628
F         8.04288134714490       1.91601322448357       0.70071646862870
F         6.40583237103272       0.44716082285417       0.69348593427866
F         7.86101694013082       0.47658367536325       2.34407488397415
F         4.48779793856103       0.24297708175508       6.49299962550961
F         4.32944961378418       2.34143056726946       5.84688405510065
F         6.27138468098529       1.30861227083592       5.78295717424035
