23
C5H9F6N2P optimized with ForceField in AMS.
N         1.11130868203507       0.00964043075758       0.00147944815124
N        -1.11053972586374       0.00684887732484      -0.01035906377463
C         0.00135851945326      -0.75419676022023      -0.00644834113020
C         0.68884954920916       1.28898133268776       0.00060316484694
C        -0.69126618344778       1.28732256312407      -0.00662804334346
C         2.49509297644336      -0.44505575965559       0.02318781224091
C        -2.49328832187268      -0.45170767121358      -0.00920300543209
H         0.00259865906388      -1.83759659937310      -0.00450089109854
H         1.33485192277451       2.15727986210540       0.00685607430749
H        -1.33928683990619       2.15420779993840      -0.00570707703926
H         2.54124756687711      -1.55492166535412      -0.00123499905359
H         3.03407061183119      -0.04093815455518      -0.85866542716772
H         2.99204669105275      -0.08237262818994       0.94689815721448
H        -3.01170950359832      -0.06946042133264       0.89526407619080
H        -3.01158339129948      -0.07354145515513      -0.91521769271820
H        -2.53609526725684      -1.56177879042412      -0.00626342521822
P         1.80408998680494      -2.15721444511686      -4.38932021330762
F         3.34461121799952      -1.98709342501678      -5.13164390396817
F         2.37205635348071      -1.22842897692963      -3.06303225917670
F         1.27398448291537      -0.70912797341172      -5.14751913367346
F         0.27712727129279      -2.31292431389310      -3.61622986983720
F         1.24884476463187      -3.07317588728710      -5.73303216678072
F         2.34101727137952      -3.59014475970921      -3.60723380233205
