34
C8H18F6NP optimized with ADF in AMS.
N        -0.53067320276138       0.40673672308586      -0.19021960270658
C        -1.71403623127991       0.44999291261821      -1.14440504012476
C        -0.78459892788175      -0.85870631935222       0.59613454234690
C        -2.90262168660272      -0.05449201139581      -0.32542334093461
C        -2.29354737575941      -0.88132653870891       0.83916607978824
C         0.76434949091947       0.34975038926336      -0.97839228279315
C        -0.56683440318145       1.60811680490932       0.71134230270717
C         2.02508577261534       0.40482046278043      -0.13454657888523
C         3.24750259830105       0.23138771548578      -1.03968010735465
H        -1.46020654397778      -0.23493112685913      -1.96653520231643
H        -1.80181190378712       1.46911616063285      -1.54262345431213
H        -0.17200284884141      -0.85735530704021       1.50574118112070
H        -0.47063328889285      -1.68960884169030      -0.05304615754333
H        -3.56330927242244      -0.66105503692849      -0.96137109327305
H        -3.50373144183470       0.78306090988372       0.05627130869199
H        -2.54286539287314      -0.43616565101673       1.81348288112653
H        -2.65823860487118      -1.91875896332091       0.85427230916073
H         0.72594214827313       1.19614840915729      -1.67939979831190
H         0.71423344620830      -0.59129471536832      -1.55010337049103
H        -0.31383974331937       2.49254310836376       0.11275785586517
H        -1.57986840103701       1.71023520795691       1.11717155335246
H         0.15002851336941       1.45722595416074       1.52633239399464
H         2.09372940618964       1.38296083135412       0.36727595559700
H         2.02120501096412      -0.38154205382152       0.64149949706433
H         4.17500152802967       0.29159161998908      -0.45250540747327
H         3.23172987833822      -0.74404065206687      -1.55091702302898
H         3.27523327079324       1.02253122381178      -1.80448884911507
P        -0.24187789231306       3.95380218585531      -2.64017301186678
F        -1.45037095799020       3.61396239155135      -1.51136044263084
F        -0.37046895785875       2.36155490084172      -3.16997420492782
F        -1.38121608414043       4.40544026614408      -3.71938661074198
F         0.96589563076624       4.20983467527496      -3.70997212784297
F        -0.11757037123893       5.46972728469490      -2.04540162726401
F         0.88494740589719       3.42096102855389      -1.49918068527728
