44
C12H24F3NO3S optimized with ForceField in AMS.
N        -0.83382582976625      -0.20465785507156       0.02924715628593
C        -1.17651824092791      -1.23580076725387      -0.99878765456827
C        -1.96632041361070      -0.24142806846825       1.00498257147955
C         0.43722455903607      -0.57619371233681       0.73320268607141
C        -2.60164188215304      -1.69617319310528      -0.75396137043858
C        -2.79571124084118      -1.47788167723615       0.71955434275566
C        -0.75675171622960       1.14348865401610      -0.62236654902358
C         1.70237975501228      -0.54915300936378      -0.15817651978045
C        -0.39100386020703       2.29950306818050       0.33954825848992
C         2.91630862854568      -1.08517752218095       0.61129944934139
C        -0.48576566034758       3.64876848284110      -0.36612020938843
C         4.18220109956299      -1.03511223953954      -0.23986770814442
H        -1.07360112773123      -0.86672674422583      -2.04489054043215
H        -0.52923312381491      -2.13955241552527      -0.92254045846377
H        -1.63321081475458      -0.24498663180385       2.06813145423349
H        -2.64614060250151       0.63459596961538       0.89397987645344
H         0.33461589223037      -1.59811142631669       1.16756097346654
H         0.61138408064715       0.09496405722578       1.60315048325701
H        -3.30948193048559      -1.05669226402302      -1.32694268213831
H        -2.75038886037153      -2.76224252274276      -1.03318296847847
H        -2.39068814034679      -2.34461120429670       1.28772318147637
H        -3.86771615795549      -1.32949853047007       0.97531498015456
H        -0.01921629973723       1.13307811158523      -1.45514368584651
H        -1.73541938998671       1.38060908666331      -1.10178241652650
H         1.55274036009266      -1.16487889456290      -1.06981725602973
H         1.92465840232962       0.49152201998835      -0.47361350291386
H        -1.07039227443341       2.31532123709463       1.21683052670226
H         0.64902264601553       2.18454942035010       0.70754830952355
H         3.07694421725476      -0.47562603926275       1.52732721390886
H         2.73185410849790      -2.13782397237485       0.91794003408445
H         0.19675087114486       3.67434548186822      -1.24257879476853
H        -1.52787203514533       3.83441148131306      -0.70179745512972
H        -0.19228658142559       4.45850679695171       0.33453371971728
H         5.04038007875734      -1.42209138428727       0.34919488394288
H         4.06247851495432      -1.66359404832813      -1.14777778377741
H         4.40339732581637       0.01054847168151      -0.54266707555215
S        -1.43348080147314       4.29639438481169      -5.91937952740678
O        -0.40426550310383       3.17381838428944      -6.11632142315197
O        -2.77003060782332       3.60011033698970      -6.21435251456633
O        -1.22228348264340       5.18650619719377      -7.15270438600318
C        -1.34685021578574       5.14981614429685      -4.32377076980958
F        -0.09313904133965       5.70876951338118      -4.16681085216684
F        -1.57849962148421       4.24154203996561      -3.31082641586379
F        -2.30517125077144       6.14384069047304      -4.27976930817520
