73
C21H32F18NP optimized with ADF in AMS.
N        -0.74583902753293       1.37672119976398      -0.50256388414728
C        -1.20774613788828       2.25228163550776       0.64420758564302
C        -1.66574365272180       1.60160463204772      -1.69288237199537
C         0.64445693745743       1.81411788121691      -0.95190351780552
C        -0.74254484218485      -0.07797620598583      -0.05695528377441
C        -2.67419187621127       2.05409153271552       1.00304425499756
C        -3.12516828836407       1.35827542402929      -1.36590361728949
C        -3.58204932753955       2.24791343456282      -0.21112568369654
C         1.78332000765134       1.53888343875618       0.01111812179191
C        -0.29820953493677      -1.06774142401727      -1.11380242173916
C         3.06216222443016       2.18333753260810      -0.53807379916899
C        -0.25351277084706      -2.48966409360453      -0.55386178150662
C         4.30615397602958       1.81538842794221       0.26637571403778
C         0.23105626538054      -3.48007269700604      -1.61367682199180
C         5.57047855366147       2.42347071096471      -0.33638552380968
C         0.28478935654980      -4.91439186373998      -1.09896238826989
H        -1.03343876458369       3.28898599761585       0.31425471992530
H        -0.54887790439417       2.04298805672260       1.49753114457575
H        -1.29810077054485       0.97136841452119      -2.50788319925424
H        -1.50469180758424       2.65032222912123      -1.99024426100759
H         0.55390246660147       2.89305929929048      -1.15510569716530
H         0.82425643876170       1.31638089720926      -1.91220634413792
H        -1.76110769534610      -0.30617015392647       0.28104287183586
H        -0.08488829173082      -0.11309731243753       0.82544389556625
H        -2.91393795921788       2.78641036859391       1.79178964333206
H        -2.83300448166365       1.05854404868475       1.44964911968725
H        -3.30177424343102       0.29342141706530      -1.13784881979758
H        -3.69778723928658       1.57382441552956      -2.28288111651790
H        -3.53730491318416       3.30493651885740      -0.53248435651101
H        -4.62881572563045       2.03564961330785       0.05689520062205
H         1.57931619600295       1.93605843339253       1.02077938457780
H         1.95062070677990       0.45283973853005       0.10436263468251
H        -0.97975799004656      -1.04993917252702      -1.97818089401744
H         0.69527099386210      -0.80923514665661      -1.50609725665060
H         2.94194360863859       3.28243288609905      -0.55580295510573
H         3.20579855409759       1.86596703436466      -1.58219028439942
H         0.41997693484423      -2.52940221520727       0.32348372116038
H        -1.25661944339741      -2.78973555273371      -0.19467499116186
H         4.40260491241566       0.71470733220320       0.29129190869317
H         4.18639958963271       2.14691530899495       1.31442863818370
H         1.22818382429045      -3.16604304542191      -1.96939005340582
H        -0.43123938968957      -3.41813218924418      -2.49505940582874
H         6.46486370018692       2.15035703229647       0.24325369459025
H         5.71350914271200       2.07269552679863      -1.37020354814609
H         5.50492474702985       3.52304872246673      -0.36132364898574
H         0.63913389571525      -5.60199391133064      -1.88169091373561
H         0.96826970578557      -5.00233651105713      -0.23871641378032
H        -0.71081597670345      -5.25785150355428      -0.77354075930904
P         1.19373862447520      -0.00364982489006      -5.18707285438227
F         0.96052129324039      -1.64334422620375      -5.03762764697604
F         2.04074421274365      -0.12457400821304      -6.59699461758150
F         0.31794187333975       0.20736005485223      -3.74112753527709
C        -0.48074655013274      -0.07440295797808      -6.23079872259385
C         2.93620122305165      -0.34859500172680      -4.16570883853556
C         1.47843479063277       2.00983313435643      -5.11531268597039
C        -1.82408444025408      -0.42667972564491      -5.51348357034841
C         4.31265098084549       0.36898556222645      -4.41642883923910
C         0.42171020720822       3.14881307668711      -5.31305523745753
F        -0.34635887850952      -1.04493640117442      -7.19496991606441
F        -0.72912716217268       1.10386587446985      -6.90263864840864
F         3.26885807557544      -1.66289997183017      -4.40051102400622
F         2.72990176184783      -0.24578894978440      -2.78834623000475
F         2.51470943479759       2.36209492624249      -5.94303389761014
F         1.90167118238539       2.24544660321656      -3.80562419069706
F        -2.80369057459435      -0.59039751044406      -6.44318450273826
F        -2.24245993117271       0.56741153829463      -4.67669492771304
F        -1.74644474744362      -1.56675200405803      -4.78958977086160
F         5.27600570130993      -0.30515227626853      -3.71596549757578
F         4.65171156368236       0.33912582488645      -5.72026664318366
F         4.36008747952549       1.65098800421387      -3.98350685691465
F         0.17725060648382       3.42610535346285      -6.60541342416142
F         0.90102035298891       4.29943806142633      -4.74742648322871
F        -0.75073701871025       2.86325739205051      -4.68251446455984
