52
C16H30F3NO2 optimized with DFTB in AMS.
N        -0.13673792920239       1.48944075606651       0.52633228997644
C         0.20723730354666       2.27645433808830       1.76419409995841
C        -0.48577597046628       2.52395909307054      -0.51951103648644
C         1.05419435543567       0.70108910853666       0.06319995327658
C        -1.31452616845464       0.61186808780691       0.82494750121242
C        -0.65285388497011       3.52492959401531       1.68974450750869
C        -0.65044559721775       3.86190691417671       0.20110623930776
C         1.55426279263794      -0.32280374415871       1.07835630713691
C        -1.71244973238410      -0.33162806987263      -0.30943693122010
C         2.99739941382047      -0.70504670047011       0.72645663694978
C        -3.04493591013781      -1.00927591973228       0.03232452642734
C         3.54461548065600      -1.75329296309678       1.69848946658766
C        -3.46035346220177      -1.99058321477921      -1.06834872520308
C         4.99357754686195      -2.10669994020440       1.36798248105944
C        -4.78740460107531      -2.66876723190754      -0.73405325670370
H         1.27187277917506       2.52465662749911       1.70794779330016
H         0.01684714379559       1.67193644762449       2.65051031054949
H        -1.39435339053399       2.21470252397538      -1.03613762182493
H         0.33870117779012       2.57423221574461      -1.23108400009467
H         1.83613233927834       1.43820626496668      -0.12802602229132
H         0.78818685660774       0.22111809122444      -0.88058649781221
H        -2.14804293835276       1.27543156661825       1.07027542368841
H        -1.06728549794045       0.02607180819500       1.71374486153448
H        -0.22057211256533       4.32656323465424       2.28917803265283
H        -1.66715816029917       3.32764411183077       2.04961524100227
H        -1.56741862809681       4.36679343074300      -0.10595568048731
H         0.20432927054594       4.49916795516508      -0.03614944943720
H         0.91625175923388      -1.21271836797489       1.07973269563772
H         1.54364546927838       0.10421320264943       2.08382000294862
H        -0.94705367992352      -1.09959486046883      -0.44674859176760
H        -1.81625063184726       0.21379331538456      -1.25100746065282
H         3.61527999734242       0.19738702274821       0.77134545397924
H         3.03461487372093      -1.09357798173029      -0.29686206706946
H        -3.82081321769369      -0.24614108257033       0.15586612738307
H        -2.94708197361178      -1.54409856568406       0.98304713579658
H         2.92685483595257      -2.65745016591178       1.65088419200990
H         3.48938834340356      -1.36394691498109       2.72063857008581
H        -2.68163609977780      -2.75087890593027      -1.18921496228141
H        -3.55354764465650      -1.45272317320314      -2.01764749639923
H         5.36789854454483      -2.84856866344408       2.07374049173567
H         5.06675944611117      -2.51712255896654       0.35983557682321
H         5.62422947490641      -1.21922886020336       1.42806773245028
H        -5.06166833555485      -3.36119092171466      -1.52972530755457
H        -4.70739020355409      -3.22616995784956       0.20006358677806
H        -5.58035088255305      -1.92714092723498      -0.62948713133445
C         3.13391394762418       3.42969936069448       0.27065770578030
O         2.25794561348640       3.57243368908535      -0.58707149123396
O         3.23408751766571       2.58155286721140       1.16243622504009
C         4.29822473175353       4.52506440165462       0.24849784174225
F         4.12283653032727       5.42315285214887       1.23973814578349
F         4.33701670054424       5.21669905046989      -0.89946748717188
F         5.51304224192425       3.98178661474063       0.42302845352294
