52
C14H18F18NP optimized with ADF in AMS.
N         1.59188670905568      -0.27513955280161       0.42181408771565
C         0.32612632620589       0.52842477922588       0.63182974744059
C         1.05549704154187      -1.66137495383391       0.10419137743522
C        -0.59875910856669      -0.39840664769355       1.41834618792721
C        -0.15708297722170      -1.83365958634577       1.02292563905776
C         2.40977209146971       0.29825783918660      -0.71466061237776
C         2.39528398413484      -0.31303271189705       1.68784478400453
C         3.65006531027374      -0.49980359454798      -1.07597514580590
C         4.33845390790426       0.12748332626177      -2.28681059795312
H        -0.07258804748095       0.73898161132180      -0.37193080505793
H         0.57749245613044       1.47556387985365       1.12872927426975
H         1.84930724455162      -2.39936490949710       0.25996606828663
H         0.77044223125084      -1.63840466948191      -0.95866038389898
H        -1.64862786362904      -0.19200360261899       1.16579650035685
H        -0.49109536368783      -0.23578802045014       2.50066861499381
H         0.11261003841054      -2.42579221916204       1.90716251413312
H        -0.94923375299969      -2.38346565131949       0.49567161598471
H         2.67353237001574       1.32663296986753      -0.41503568522756
H         1.72248234412446       0.35815654176998      -1.57448665819810
H         2.73531639140448       0.70587011336804       1.91391279066191
H         1.76849706328171      -0.69922207057019       2.49823701501172
H         3.23943910359304      -0.99242387540152       1.55028544123785
H         4.35355764787344      -0.53012789340504      -0.23241921630874
H         3.38370757361321      -1.54515013496005      -1.29678208368803
H         5.23583318421345      -0.45153951183884      -2.54534469144314
H         3.67713654859356       0.13939401516994      -3.16773538750303
H         4.65306980744102       1.16253482320921      -2.07941086161388
P         4.47435696474865      -4.37330897890464       1.54664976406654
F         5.37140044860834      -4.71364625555450       0.19141688390553
F         3.92004887943742      -2.94492313090058       0.78463764063008
F         4.96029386656224      -5.73677551161868       2.34820766084445
C         3.00776894497873      -5.42481147317530       0.71300359518392
C         6.11955802457901      -3.45789469792255       2.19559223347175
C         3.31978844214439      -3.78858903231238       3.08630272792386
C         3.38911375406003      -6.46688362932324      -0.38971451833060
C         6.51038966486854      -2.08976942269703       1.56686002828277
C         3.24562901093047      -4.57990420533689       4.42572763245419
F         2.05248525807348      -4.62315403279056       0.08842469744121
F         2.34120826161677      -6.15407509880477       1.66640023977327
F         7.18881916496768      -4.28219894379310       1.93225206288204
F         6.13308865015083      -3.24412584270047       3.55615343147578
F         1.99821326702620      -3.69909491890394       2.65542987661259
F         3.66021940427368      -2.49739794504476       3.45473280761710
F         2.28088266145314      -7.21398626921932      -0.67890963901172
F         4.35754885960466      -7.31012770038473       0.01701724307381
F         3.77220148009554      -5.86809322991104      -1.54416834225876
F         6.54502025128557      -2.13124589709336       0.21518822680716
F         5.64203814155059      -1.09898513931378       1.93665233340144
F         7.74240539356380      -1.71252795036242       2.00140038130265
F         2.42038206807343      -3.89906099547293       5.28394137569119
F         4.45177171336918      -4.68671781235062       5.01495491616590
F         2.72908361407997      -5.81333296141763       4.26052230965271
