25
C7H16ClN optimized with ADF in AMS.
N         0.88082997890865      -0.08749182575720      -0.15876105106924
C         0.17103547144434       1.16674210516431      -0.66210706643828
C         0.01029974673256      -1.29818033129394      -0.37963412359326
C        -1.20262803215576       1.33313328455442      -0.04081308736687
C        -1.36959831761994      -1.15647868476422       0.24408727437440
C        -2.08048312035737       0.10000943850669      -0.26176489874396
C         1.24891223847982       0.06674785671030       1.29187484226911
C         2.15762017975814      -0.23707392588180      -0.93725057026833
H         0.09260111025688       1.03353149802916      -1.75389441578419
H         0.88086494968799       1.99783195136235      -0.43852003165296
H         0.56279108918318      -2.16164302059216       0.02253606069730
H        -0.06926678032235      -1.41503671102533      -1.47291746430972
H        -1.65733806283138       2.22826127976072      -0.49672860215738
H        -1.10891948540364       1.56158930062274       1.03420594114891
H        -1.28818949381448      -1.13506690546711       1.34364848638048
H        -1.94084256502182      -2.06596643717214      -0.00524102474676
H        -3.05462952349280       0.21351816270611       0.24056269422990
H        -2.28944860376550      -0.01034992096158      -1.34209093862364
H         0.33996773037246       0.18702389297107       1.88843448511693
H         1.78183872130004      -0.84322796295778       1.59940925744215
H         1.89863388380948       0.96999738474247       1.35028165274705
H         1.90102033581657      -0.34436189643938      -1.99951553723334
H         2.75202506475839       0.68507499699410      -0.74699254812043
H         2.67413953718721      -1.13785319956887      -0.57807084151757
Cl        2.89399528058934       2.73851976945710       0.30597641611970
