29
C9H14BF4N optimized with ForceField in AMS.
N         1.09607906038331      -0.01555531111006       0.49913577429453
C        -1.27379561137625      -0.00498192548795      -0.14901576011082
C        -0.27792922906745      -0.01454376445094       1.01495977947920
C        -2.72021756263135      -0.00001804035703       0.35546000515487
C        -3.70668763468748       0.00262614964524      -0.80888361019653
C         1.70438525697913       1.17038617100516       0.18985607779492
C         1.74400000060736      -1.20263281864262       0.29087079673474
C         2.99512813864292       1.18706563799664      -0.34401890660335
C         3.03597150215861      -1.22137142836108      -0.24060825489382
C         3.66342639386217      -0.01755748490725      -0.55884030484367
H        -1.10531701145776      -0.90599143233039      -0.77884068297548
H        -1.09813034232692       0.89829692816673      -0.77341008250425
H        -0.45231703478531      -0.91106260697910       1.65073581464709
H        -0.44165204956008       0.87495546283707       1.66315493246357
H        -2.90208917599969      -0.90148427354800       0.98021070165404
H        -2.89551156947576       0.90346886511638       0.97914697480519
H        -4.74608658570998       0.00771220468833      -0.41851420390897
H        -3.55945226031568       0.90663264980231      -1.43757902795183
H        -3.56735592982681      -0.90462496105489      -1.43471588546066
H         1.18918760293000       2.11065683283838       0.34768204067400
H         1.25928054239636      -2.14334479076641       0.52441555087330
H         3.47198142159633       2.12690377684134      -0.59045573584858
H         3.54258447404748      -2.16245981441037      -0.41129246060540
H         4.66363597552185      -0.01816550528969      -0.97374522364095
B         6.21449467416401       1.83920810582948       2.39741449578024
F         7.04453262055377       2.83775785974920       1.82295272960713
F         6.30365323836002       1.90639193704364       3.81283927426642
F         6.63976209549695       0.55839277427532       1.95600790183267
F         4.86974634002023       2.05530062996055       1.99911178998239
