40
C10H19F2N3O4S2 optimized with ADF in AMS.
N         1.31414622682027      -1.02171812505357      -0.51684535825334
N         2.10327939735450       0.92282729219769      -1.06065980920726
C        -0.73407255153064      -2.01346053717875       0.48310783423550
C        -1.67463662597958      -0.87382628880490       0.09634283268079
C         0.43129269610120      -2.19782428612617      -0.48498818974017
C        -2.90721171753223      -0.78401756511283       0.99343294207173
C        -3.85219442471973       0.33939241139051       0.56969292368925
C         1.12980335755201       0.04027850055816      -1.30830847601843
C         2.43673309703933      -0.81205333765398       0.25885039121091
C        -5.08786056561736       0.45082629937971       1.45897841260617
C         2.93946457628697       0.40852110346180      -0.08869958599178
C         2.31062996418755       2.15010028701484      -1.82311278405685
H        -0.34936072373258      -1.86376352815497       1.50823235542846
H        -1.29229273461052      -2.96599366578478       0.48878277512076
H        -1.99099523277051      -1.00204303153110      -0.95282252654188
H        -1.13463800935916       0.08977891176106       0.14523825075487
H         0.07922204815417      -2.34621712697470      -1.51558925350527
H         1.06339003302870      -3.05508463299574      -0.21345061105753
H        -3.45007629409938      -1.74709009183864       0.96621430473735
H        -2.59550944179088      -0.62968227129584       2.04377438454004
H        -3.30025378100037       1.29729600336998       0.57846563506888
H        -4.16010555717611       0.17085192524410      -0.47798116759011
H         0.33844927878939       0.12392427692271      -2.04697965422433
H         2.78374621430333      -1.54784778853390       0.97329655301919
H         3.81869767096716       0.94126825970214       0.25142281738979
H        -4.80512198107704       0.64925011987664       2.50561515568610
H        -5.74847858743674       1.26655358624127       1.12765838861531
H        -5.67237584145234      -0.48293662824445       1.44097448302366
H         3.25976934460903       2.07398300928515      -2.36827475784907
H         1.49711509179893       2.24034360657716      -2.55140838782662
H         2.31381012505259       3.00942395078173      -1.14035431259747
N         0.56341280985012      -1.04653144076056      -5.32214839984629
S         1.96457694084216      -1.33825897309285      -4.59623630594146
S        -0.66856748788934      -0.39399485024760      -4.55408853601709
F         1.59658041349810      -2.57742538956447      -3.53394669541456
F        -0.14769092214231       1.17415636535536      -4.21674733877136
O         2.86244721970248      -1.93606315639534      -5.55436666366139
O         2.43673740594803      -0.28776829704831      -3.69939595251701
O        -0.92067892420330      -0.90233488010440      -3.20146809572976
O        -1.76989061436590      -0.22190385122214      -5.46889733791973
