34
C8H18F6NP optimized with ForceField in AMS.
N         0.01169208155059      -0.00335404168827      -0.00368512879010
C         0.91727222038313      -0.85761102975944      -0.83125592261472
C         0.92522369787290       0.84913827295882       0.81756992535429
C         2.32937334477616      -0.32116162118440      -0.70071509449986
C         2.34027641168660       0.32776242987517       0.65496390271380
C        -0.82210465367538      -0.86006374386781       0.90064019687919
C        -0.82563105764545       0.85512287230274      -0.90304426000466
C        -1.82670688168414      -1.77037294345429       0.17047781098170
C        -1.82847346401999       1.76289620383677      -0.16730660305572
H         0.62595107983009      -0.89573800383676      -1.90600826528685
H         0.94137818205776      -1.91319491332768      -0.47537347602502
H         0.65363999024049       0.87116831405090       1.89799319300319
H         0.93341587358463       1.90944361064400       0.47550943990421
H         2.51753890959353       0.43989470139925      -1.48933426437135
H         3.08845553359928      -1.13044787565403      -0.77212558096284
H         2.55541517182081      -0.43241321251060       1.43807408094727
H         3.09180941878116       1.14508264892839       0.71124864750491
H        -0.16278549723553      -1.50839578497019       1.52224935700264
H        -1.38974298791976      -0.23488160570779       1.62470004902985
H        -0.16858035109130       1.50499475536275      -1.52557660544215
H        -1.39615550487090       0.23134908877134      -1.62604607947881
H        -2.28008695675244      -2.47153558916434       0.90193316776750
H        -2.65106856856887      -1.17896960155431      -0.27637405617279
H        -1.33752650230753      -2.37060177258258      -0.62326008861595
H        -2.28182253990807       2.46813149447527      -0.89479532642925
H        -2.65308711133632       1.16984130844225       0.27703383512911
H        -1.33845103512084       2.35830944235578       0.62948600045147
P         4.33583605479099       3.16811425314047      -3.08632109419163
F         6.03775813628017       2.96418553445703      -2.95943380816965
F         4.20253734551360       2.62533023080081      -1.46149515674993
F         4.37224103573269       4.77610626566955      -2.48038576941301
F         2.62653101133697       3.24895303652556      -3.24763045567263
F         4.57312482248057       3.82989839106261      -4.65480789856308
F         4.21187946042439       1.57115500530301      -3.70958634495912
