49
C13H21F6N3O4S2 optimized with ADF in AMS.
N        -2.83185112631214       0.91211745930840      -0.26188599476184
N        -3.43707612124428      -1.02131017604476       0.51176100019306
C        -0.74999774256230       2.08520944604981      -0.96168961099699
C         0.04168624998298       0.83391810982545      -1.33830969819772
C        -2.25621518679532       1.92957693126076      -1.15481506977318
C         1.55401642216141       1.04499710104129      -1.31130229150267
C         2.32642223466474      -0.20854449923086      -1.72050424016819
C        -2.88462504448821      -0.39691066386246      -0.53629015339319
C        -3.37682013265125       1.13170540174698       0.98608739005778
C        -3.76455651233005      -0.08310284546216       1.47179275127052
C        -3.75627479789389      -2.45635654446639       0.57064257899579
C         3.83939398307993      -0.01084064138082      -1.69476339012726
C        -5.23565857505679      -2.71733185718161       0.33841115084689
H        -0.43790255535162       2.92594881806708      -1.60687270429466
H        -0.53164267198801       2.38589209746401       0.07957738457255
H        -0.26584362849499       0.50271539182310      -2.34663975021344
H        -0.21047557169803       0.00967526164795      -0.64547073732108
H        -2.79796185534886       2.86517422519269      -0.95595234701634
H        -2.48581030195528       1.60748828724001      -2.17897187142577
H         1.87142422992403       1.35963307656688      -0.29882883819493
H         1.81984715466161       1.87375966129175      -1.99427601716942
H         2.00714406543791      -0.51085040144199      -2.73449061810749
H         2.04898483403339      -1.04107091842381      -1.04776427953756
H        -2.59121442025924      -0.83664301340161      -1.48505123242443
H        -3.44943352784620       2.12381370055711       1.41371198220565
H        -4.24512883776960      -0.35596681537784       2.40266533808524
H        -3.14436394563497      -2.94307030578670      -0.19982350624660
H        -3.41633387086347      -2.81896144105909       1.55333531578137
H         4.18610345973877       0.25796268770233      -0.68368994757105
H         4.14275567866294       0.79801853355709      -2.37874333312673
H         4.36800290804877      -0.92643932763291      -2.00082085325882
H        -5.85295931650334      -2.24577559442208       1.11730782333832
H        -5.41617340229201      -3.80205136807287       0.36407491428476
H        -5.54182138213127      -2.31994585578364      -0.63886976354145
N        -4.81350107273329      -0.53264819379457      -4.58909092364158
S        -3.27526236793175      -0.96764686941952      -4.50345046487441
S        -5.66435542443363      -0.04028931947744      -3.31960397796082
C        -3.31994994864408      -2.80076542425125      -3.91211049926450
C        -5.42370983959135       1.85431552785824      -3.34028946989513
O        -2.74137493514585      -1.05289891565879      -5.84992267880206
O        -2.46365597589766      -0.31286137339687      -3.46199079675761
O        -5.12955511573971      -0.44626545231126      -2.01231342386237
O        -7.07839611369516      -0.21583004532607      -3.59405130747441
F        -2.50340600333516      -3.55312953826423      -4.67747278101137
F        -4.56195934609795      -3.32306500125896      -3.95300854685932
F        -2.87148711342697      -2.89800248480558      -2.61676632772535
F        -6.35169887140882       2.44721835183695      -4.11515007914384
F        -4.19592052357024       2.20728229224517      -3.79949580233402
F        -5.54505315727375       2.33872450331313      -2.07166940565430
