32
C8H18BF4N optimized with ForceField in AMS.
N         0.42921186078717       0.23002236006368       0.03631088295160
C        -0.51832268718171       1.27176453668469      -0.47165599158919
C        -0.08922078445117      -1.13373062882507      -0.29010044874220
C        -1.97265949667501       1.08470656770825      -0.00119932752497
C        -1.52893562329919      -1.37399549336233       0.20165418677764
C         1.73380817122286       0.46360105577536      -0.66662667053196
C        -2.47736188426632      -0.31246793342368      -0.34461991353014
C         0.62281056082630       0.38881933488734       1.50398276632397
C         2.88992135211909      -0.47151684878408      -0.26510336844072
H        -0.53662469752720       1.26280031905466      -1.58707565307545
H        -0.18119505064403       2.28963404010826      -0.16901980815858
H         0.54866374863143      -1.92242114424709       0.16493216967891
H        -0.07370962547341      -1.29717201061914      -1.39288943676459
H        -2.61498262132456       1.83349682913888      -0.51333779639946
H        -2.07121088693256       1.27452829709778       1.08739212008870
H        -1.56811752168007      -1.39066098005929       1.31134834213373
H        -1.87256892752166      -2.36887861968821      -0.14903202371322
H         1.60117799046064       0.36290152099866      -1.76857016493533
H         2.08196501569686       1.50807719275717      -0.49015380749166
H        -3.48969617868162      -0.45933361740936       0.09032729888288
H        -2.55728429484199      -0.41848476854239      -1.44927984794409
H        -0.33125976691480       0.35904888682142       2.06402711189795
H         1.23983558637807      -0.43287361872229       1.92496511113801
H         1.11248617307088       1.35952217441719       1.74033828331672
H         3.78564862107359      -0.20565122039519      -0.86587122353812
H         3.16884727280363      -0.34630269157876       0.80038538812934
H         2.65529914300288      -1.53292205371882      -0.47974244641007
B        -1.33586591221224      -5.52476922383604      -0.47348095205230
F        -2.21931224231762      -5.00322807661829       0.50903686140313
F        -0.89670352300171      -4.47672651719351      -1.32518708381458
F        -2.01303832893957      -6.50632963312899      -1.24453534723911
F        -0.21362426048695      -6.11504552766080       0.16568861027317
