40
C12H22F3NO2 optimized with DFTB in AMS.
N        -1.94888733112927       0.35043510189373       0.04311730707334
C        -2.18552341347178      -0.91092443168617      -0.74811140708981
C        -3.19210448263595       0.53866621407919       0.86548315409716
C        -0.77155665625760       0.22137574970700       0.96526495017944
C        -3.69463185746504      -1.16896088978368      -0.73180411589722
C        -4.31829452725138       0.03209691276354      -0.01883623722445
C        -1.77930823450409       1.50940450017964      -0.86840293672091
C         0.56298072314582       0.03164894780184       0.25305396901235
C         1.63589778900362      -0.31114400580303       1.29509814810210
C         2.99414747028957      -0.55412530366519       0.63155312244031
C         4.05906379298951      -0.90221423519099       1.66997446022901
H        -1.65706416079873      -1.72231476027665      -0.24786041521818
H        -1.78513839523038      -0.77633431833049      -1.75382356963828
H        -3.28112489682405       1.58504629159924       1.15776683297168
H        -3.09195452095954      -0.09302026456619       1.75036364959494
H        -0.98137476339634      -0.64632012079570       1.59524795896060
H        -0.75406565088263       1.11757257345918       1.59038210564889
H        -3.88680742735716      -2.07981128577907      -0.16026670589983
H        -4.08802285295643      -1.29057700294603      -1.74214278819311
H        -4.63770617404571       0.79675488829160      -0.73261753613063
H        -5.17766260549898      -0.25900633567984       0.58557742910742
H        -0.93459933430854       1.33067339823246      -1.52961379134742
H        -2.68340892895504       1.63274592334793      -1.46068647899734
H        -1.60053409658086       2.40399003924009      -0.27389207352336
H         0.48965272853218      -0.78227308800508      -0.47394621133019
H         0.85351259185045       0.94108274525177      -0.28237190430507
H         1.32978684334223      -1.20494248175093       1.84647951686793
H         1.71785090789693       0.51157234094566       2.01274129286392
H         3.29866553835791       0.34302528373604       0.08108241778102
H         2.90532197524537      -1.37439358208255      -0.08886203522468
H         4.17698153179725      -0.08650431644652       2.38433598361994
H         5.01656419807653      -1.07611910302075       1.17886674237334
H         3.77840924272699      -1.80355226149107       2.21567821941097
C        -2.48478668232005      -2.63843870492361       2.91714437366719
O        -2.98904848499012      -3.60394641859089       3.43619167934181
O        -2.46757192661282      -2.19103202806916       1.75895400754281
C        -1.63136084098064      -1.64970514253322       3.90928847194223
F        -0.31617780165600      -1.63011396137510       3.56568948430595
F        -1.69017413785420      -1.91115685830522       5.21363406597682
F        -2.05206739923103      -0.35847695353174       3.74744782662929
