37
C13H18F3NO2 optimized with DFTB in AMS.
N         1.83447938281298      -0.53744307278535      -1.07521192330443
C        -1.92478883398394      -0.37764895796866      -0.46518971642474
C        -0.43171921982483      -0.16664944664715      -0.20043512635668
C        -2.77700700049952       0.20477521923359       0.66658472085604
C         0.41269102034340      -0.74859275653410      -1.34001971100857
C        -4.27119055078178      -0.00497046962503       0.40126739067891
C        -5.12396938859426       0.57461502095670       1.52864159465038
C         2.60355020729937      -1.54226561622888      -0.56122742432760
C         2.41234000737512       0.66124877938223      -1.55715278680598
C         3.90199402283769      -1.34730024231749      -0.23581518165512
C         3.75391997616228       0.93506114357669      -0.99137106340567
C         4.46961868913240      -0.04623980834742      -0.41442288504683
H        -2.12906332868254      -1.44951255029860      -0.56306285992100
H        -2.19686726277295       0.10174395610724      -1.41177733936725
H        -0.22066562275826       0.90294298326167      -0.10402876218915
H        -0.14590233819049      -0.65060611409475       0.73875119584582
H        -2.50247686913789      -0.27471990420119       1.61255101721737
H        -2.56972659635270       1.27601597384371       0.76329196484287
H         0.15787907086678      -0.26880475785730      -2.29012462362728
H         0.23119680447954      -1.82310418212986      -1.43361163301342
H        -4.54343216696222       0.47517986794378      -0.54473607014969
H        -4.47652059598387      -1.07644804741198       0.30336880090701
H        -4.94858328217806       1.64672369327074       1.62813639504572
H        -6.18150324723077       0.41372470571328       1.31820980437041
H        -4.88134049030018       0.09404963898991       2.47752893316197
H         2.09048947864241      -2.48107346032776      -0.38484448629667
H         1.71724900345768       1.50585171779489      -1.47686482670419
H         4.48900435293359      -2.14728729444259       0.19247999322135
H         4.13931149863682       1.93644121367352      -1.13134008321435
H         5.46806704409082       0.14586701354609      -0.03845948016133
C         2.27076387946740       1.47378319866849      -3.85854024511327
O         2.56558371772962       0.47058661465502      -3.08914763336932
O         1.86705743152407       2.55492837812985      -3.54151537339854
C         2.50184317776391       1.08019097094729      -5.36370636855066
F         2.21928091243016       2.09397283685686      -6.17394914878441
F         1.71927900532698       0.04955430878868      -5.69828525078401
F         3.76903214782122       0.71887609117791      -5.57200112161767
