30
C8H15BF4N2 optimized with DFTB in AMS.
N        -0.47601149804916      -0.85160789227997       0.53032686187417
N         1.66233194344855      -0.71608354335496       0.33158350452765
C        -1.81084308681693      -0.72165978252984       1.11168839599214
C        -2.68146533353945       0.23587220644874       0.29506444647850
C         0.64807602761820      -0.55790875790984       1.17562457752866
C        -0.17506817717368      -1.19235309893577      -0.76318227341433
C         3.04033703014116      -0.33535829429037       0.63043644498561
C         1.17461776896507      -1.10118443232878      -0.88955473084364
C        -2.10525629066760       1.64904409137480       0.25994331597252
C         3.37973838107165       0.96792165964969      -0.08403142672737
H        -1.67494315028867      -0.33788487484013       2.12654299974471
H        -2.26559247601960      -1.71659051252416       1.15244910451366
H        -2.79994959868445      -0.15085235524430      -0.72245028971599
H        -3.66985800714169       0.24986335813875       0.76439777641447
H         0.72671246864201      -0.26533614613496       2.20892185231663
H        -0.92936804214179      -1.47199477750193      -1.47733872417237
H         3.10825989766644      -0.20101090719621       1.71300924021882
H         3.70129321421370      -1.14851170804183       0.31557736447509
H         1.81619020894383      -1.28324238790364      -1.73389161950030
H        -1.13396027751227       1.65495333417615      -0.23307307189917
H        -1.97542145496700       2.03064758521617       1.27171275521717
H        -2.78106008059818       2.30821104098313      -0.28445542354806
H         3.31759466604748       0.84347291314406      -1.16492000218575
H         4.39266471432500       1.26504310453343       0.18328045337567
H         2.68438217101112       1.74650170007630       0.22689721541547
B         0.72468432996604       1.99798266994524       2.55762704985122
F         0.73507845849015       1.96230978868577       1.13198597480828
F        -0.43828554755519       1.29532100644122       2.96912644544855
F         0.73927858930703       3.27594774340493       3.02518959908034
F         1.85118878609822       1.25371511059833       2.98384524316766
