34
C10H21NO2 optimized with DFTB in AMS.
N         0.38936388488182       0.12607572485089      -0.00029026148988
C         1.18209043950645      -0.79178589796134      -0.90247163422231
C         1.39850486241917       0.72035597329382       0.94501665854299
C         2.56951622506167      -0.94760125285227      -0.27880191811730
C         2.45122855525913      -0.35741582824920       1.12349991017678
C        -0.61167860614986      -0.65593718610636       0.79669794733338
C        -0.25326823439747       1.20489677069933      -0.82771418664911
C        -1.77281439037014      -1.21823767556830      -0.01287726535198
C        -0.87555581804164       2.31968065213050      -0.00592566186506
H         1.26037037389815      -0.31722586659578      -1.88074738180196
H         0.65651372957370      -1.74256619789977      -0.99624742453351
H         0.90534570512821       1.01384844021483       1.87175960564379
H         1.81945683986021       1.61054218085132       0.44978943282760
H         3.28179762726434      -0.36283643353653      -0.86651698210688
H         2.88386415174191      -1.99229226864235      -0.26370315192401
H         2.13380216823254      -1.11363268364158       1.84861815078569
H         3.39216984052802       0.07699972651747       1.46263942200987
H        -0.06303707317540      -1.46991660140763       1.27697172238315
H        -0.99946231787082       0.00371085883882       1.57638248076290
H         0.54942764175787       1.61805992432915      -1.44532083428043
H        -0.98900589289639       0.72421987071417      -1.47561346993153
H        -2.32026061972803      -1.91251481534481       0.62448200967824
H        -2.45762418856540      -0.43156050974843      -0.32478767999640
H        -1.43182343668608      -1.75927709534654      -0.89386829273796
H        -1.42766010656571       2.96483972773128      -0.68901905711586
H        -1.56412000510997       1.95034212221924       0.75373939160788
H        -0.09440535036687       2.91678305993844       0.46255089811927
C         3.75189502752158       3.56794874971377      -2.25551559553875
C         2.71142184099856       2.66722564854988      -1.55396042424744
O         2.10525078613155       3.16300913211068      -0.57918231311270
O         2.56010391005421       1.50973342786655      -2.00739159641195
H         3.32267875035947       4.55386875850054      -2.42585300295614
H         4.61606180641087       3.67419046577314      -1.60028632902603
H         4.06394389533436       3.12472893915708      -3.19899874935432
