44
C12H24F3NO3S optimized with DFTB in AMS.
N         0.00021817240164       0.48950983669389       0.01608203288019
C        -0.59910609576793       1.59512329819989       0.84784865701109
C        -1.09768848005736      -0.18674925901777      -0.74961053074319
C         0.73907856796592      -0.46771569519215       0.91164728697123
C         0.92432884087776       1.10020214680231      -1.00616701230948
C        -1.73360806826120       1.12814118924373       1.74990487245466
C        -2.20241672083857      -0.72738888958696       0.14988730526639
C        -2.82365696334671       0.40596742148722       0.96401890257249
C         1.40572290857091      -1.64578668409709       0.20934153826636
C         2.14316173121149       1.83045848063422      -0.44298517204044
C         2.11975618727262      -2.49477144509400       1.26293649792433
C         2.96798315847342       2.39411537660033      -1.59835868105305
H         0.20434948031503       2.01328018575963       1.45668806749106
H        -0.95884245942071       2.35422302603993       0.14710255057618
H        -1.51319528778549       0.56050258786016      -1.43235913020327
H        -0.65115087809975      -0.98661583361750      -1.34329661758351
H         1.49004673827213       0.12069502939429       1.43785779246955
H         0.03091407774872      -0.83310547476312       1.65462394955943
H         1.24542156480588       0.29234680866948      -1.66921366389580
H         0.31873332553271       1.79709641455306      -1.59321186288273
H        -1.34596196760295       0.48449101304372       2.54191654404614
H        -2.14659363887920       2.02005726590677       2.22783640326804
H        -2.95625311261205      -1.18657611941611      -0.49537722974331
H        -1.81390783116764      -1.50363378117174       0.81354219045000
H        -3.56887778548473       0.00032741597917       1.65185648036404
H        -3.32742749779301       1.10619104877107       0.28876537373365
H         0.66784402932512      -2.26407816787725      -0.31088830763674
H         2.13737351879386      -1.29799352473481      -0.52499682324955
H         1.83377997714533       2.64548597978017       0.21173911194573
H         2.76481644052011       1.15249158240139       0.14385009986792
H         2.61852291388065      -3.33602165383785       0.78272056219680
H         1.40458160815607      -2.87947002703697       1.99022997435566
H         2.86333391910758      -1.89859331225643       1.79061087431808
H         3.83906808978234       2.91294063589607      -1.20051124710139
H         2.37974980845688       3.10117494943261      -2.18503734367752
H         3.30994095102180       1.59384464652607      -2.25629935311409
S         1.56489228655524       1.43402556850215       3.80518749280740
O         1.28066428948747       2.46207285156181       4.76918648016120
O         2.03324957698415       1.91605311600273       2.50335051015196
O         0.55759230299359       0.38522535131968       3.68877603754751
C         3.04462300342651       0.51889489152253       4.44126440392457
F         3.39715259785319      -0.41024057899200       3.54139987578657
F         2.78856969228150      -0.09975571578655       5.58567897975934
F         4.08359834339763       1.32384708059424       4.61973337940646
