44
C12H24F3NO3S optimized with ForceField in AMS.
N        -1.38545863439142       0.17072078462469      -0.06200179383741
C        -1.67252038199857      -1.02027660579267      -0.92040596504153
C        -2.48857927422069       0.19509634978131       0.94665120232704
C        -0.07241825088606      -0.00221672494608       0.64199624697924
C        -3.04572624190842      -1.55265811893924      -0.55583991041492
C        -3.22547750031603      -1.12742812629496       0.87382606984640
C        -1.42531252060497       1.41303311620171      -0.90048936839342
C         1.15959405987151      -0.03041718180828      -0.29408723920425
C        -1.13808485658477       2.71481895848456      -0.13004213597304
C         2.43241452803954      -0.38584273153317       0.48393601101250
C         3.66068784069481      -0.38015520374752      -0.43404048119748
C         4.92904404182960      -0.72821314626757       0.33954864088339
H        -1.63208771611053      -0.79693344852163      -2.01107802835075
H        -0.95155586492337      -1.85122443127536      -0.74409919039695
H        -2.13114313280615       0.37411624535659       1.98647876783710
H        -3.23774104070521       0.99159399171614       0.73101744546949
H         0.07871696841039       0.80810099149459       1.38935609697290
H        -0.08949013230377      -0.94858950908167       1.23120705631655
H        -3.81972340235068      -1.07223211084280      -1.19475319238776
H        -3.10472357088406      -2.65785632671468      -0.66394568037392
H        -2.74484946062295      -1.86606952773638       1.55308304942820
H        -4.30048376552288      -1.01924240711419       1.13703303387088
H        -2.42738921871363       1.51497158282526      -1.37759974443440
H        -0.70505100387209       1.34506048280617      -1.74470213690073
H         1.30270518260555       0.96699789826938      -0.75178803927400
H         1.02041504080967      -0.76880133156210      -1.11087808515341
H        -1.79231392039663       2.81908099081451       0.75924276623265
H        -0.07721369923411       2.76764882406316       0.18769761525749
H        -1.32841393050577       3.58113894460566      -0.79816618416697
H         2.31723473857174      -1.39544665667845       0.93620191862937
H         2.58143798744708       0.35424713211795       1.30113932705973
H         3.52271337370377      -1.12083858873723      -1.25169942407354
H         3.78306241041208       0.62550115922458      -0.89008772310532
H         5.80313325576791      -0.69763120275635      -0.34465501998265
H         5.09485969021074       0.00309098592437       1.15924177194589
H         4.84993902211202      -1.74960569471566       0.76921140682469
S         3.45261722634211       3.86450416947292      -2.15536071425942
O         2.14897787272324       3.12711230161204      -1.82343879791831
O         3.86609985743806       3.25083209892167      -3.50075612661413
O         4.45939678730937       3.25769406998905      -1.16757271981234
C         3.33222190350729       5.67367280938636      -2.12714383570969
F         2.98479323287726       6.09201720447105      -0.85740855265013
F         2.36770421835946       6.08527471053348      -3.02601167852782
F         4.55040116901958       6.22325967816879      -2.47528496123922
