45
C11H24F2N2O4S2 optimized with DFTB in AMS.
N         0.17274253516608      -0.35374549522011      -0.58939762982283
C         0.29765815130302      -1.71003063174073      -1.21833626986767
C        -1.30740252381272      -0.12270528809871      -0.56589985046506
C         0.69123095714261      -0.37636954627934       0.82050830906946
C        -0.87562844474511      -2.51939246547418      -0.67966167699755
C        -1.93384617055192      -1.48377126815608      -0.26851211541010
C         0.85929335578614       0.67585215319061      -1.43917297443405
C         2.20452362047676      -0.60882691040302       0.93586249851644
C         0.84103885949626       2.08575242480260      -0.85858583645608
C         2.52095809633305      -1.82437611699394       1.81482403679668
C         1.43269818185048       3.04931475320160      -1.88865768617905
C         4.02726841423362      -2.06244651236708       1.89419070663556
H         0.22731771193629      -1.58142846425322      -2.29880713168766
H         1.26614591133804      -2.14012182044066      -0.97636951008297
H        -1.55223436213952       0.63763377230082       0.17581113628830
H        -1.59865835856920       0.23118762252976      -1.55690614343413
H         0.14309573109176      -1.16711737816215       1.33809490255756
H         0.41141650236064       0.57540026239462       1.27662531916711
H        -1.25095289157395      -3.19075716644692      -1.45323483897531
H        -0.57469588922213      -3.12535680180791       0.17764633117532
H        -2.17991322465471      -1.57626324282526       0.79136713584520
H        -2.85498136242801      -1.60181088797122      -0.84151389244526
H         1.88469231028490       0.34400998451808      -1.60177090533553
H         0.35046289168820       0.66569329411168      -2.40478874530943
H         2.65491074794805      -0.76210864922728      -0.04475521866157
H         2.66752383453262       0.28302647338634       1.36787149014217
H        -0.18271360540971       2.38908577567973      -0.61853375002593
H         1.43527023710220       2.13242958442655       0.05828979524754
H         2.11865268192973      -1.66474717879163       2.82115799240480
H         2.03436208287336      -2.71140217709026       1.39550757683121
H         2.44693607767026       2.74804506714602      -2.14857903386953
H         0.83060622563654       3.05239016919412      -2.79701487473879
H         1.45739681435940       4.05834229720962      -1.47877165146320
H         4.23180323036918      -2.93351027288501       2.51629396065917
H         4.43883294677939      -2.24011325045144       0.90056786524391
H         4.52835420117387      -1.19730971663085       2.32970637480931
N         3.15409272160990      -1.44522000381469      -4.65568909428391
S         2.01874532600619      -0.34645635589089      -4.77152402722060
S         3.28552121478169      -2.19514577468547      -3.26887666197741
F         2.54937261587569       0.87622455252208      -3.80908724194362
F         1.92618919924416      -3.10740543987622      -3.16635913253696
O         2.04532779538526       0.20264383570168      -6.08089105346874
O         0.74416027235370      -0.66792928005305      -4.18399755683351
O         3.19355203374570      -1.38167292345012      -2.08111654416767
O         4.34008332054221      -3.14276064362846      -3.35633152879564
