64
C18H26F18NP optimized with ForceField in AMS.
N        -1.66882100965472      -0.39467024425228      -0.20015818491096
C        -1.91460561518635       1.05692052442621       0.06133510022537
C        -2.67800743739092      -1.23640937776778       0.51991547866399
C        -0.32447161382840      -0.78885091595146       0.33963168332640
C        -3.36309555478302       1.50020398057420      -0.20491769651832
C        -4.14100956432769      -0.82441432213289       0.27519026337876
C        -4.34621084332668       0.65199767660491       0.59161380804572
C        -1.71968216345179      -0.68323737474471      -1.65942860891833
C         0.88854746303872      -0.02676371032712      -0.24860126245965
C         2.19603329457839      -0.52698797807533       0.38059559179566
C         3.40516202508634       0.23542688047314      -0.17448298698269
C         4.70804736569953      -0.26411952736536       0.46030545595909
C         5.91420070196050       0.49211692884365      -0.08872403413593
H        -1.26422232015808       1.68901476753276      -0.58047919097687
H        -1.66960241683312       1.30289869811775       1.11814496871964
H        -2.51151838035627      -1.18384317478131       1.62123184207753
H        -2.56615384664825      -2.30808987835478       0.23606833474311
H        -0.30128864809675      -0.63791765095262       1.44416728339999
H        -0.15635903799973      -1.87860067769091       0.17300958633825
H        -3.47762825443724       2.56384713196072       0.09662569332577
H        -3.59703222521685       1.43835729105892      -1.28894516149260
H        -4.45101095784327      -1.04139672177590      -0.76792255117868
H        -4.80005275769055      -1.42740804831491       0.93680749439853
H        -4.19674783400202       0.82760738833971       1.68014243735820
H        -5.38614786402646       0.94642953663223       0.33334656255027
H        -1.07192317481993       0.00958687415468      -2.23666951538209
H        -1.39760489088904      -1.72650558780248      -1.87393095758130
H        -2.73775834086582      -0.56046082952605      -2.07696469707466
H         0.95237006229141      -0.18179350978872      -1.34498274446795
H         0.80093681160553       1.05926038884208      -0.03838810940565
H         2.15122271828993      -0.38814273401451       1.48354262697965
H         2.31614784273185      -1.61202364192101       0.16622490548333
H         3.28530246537445       1.32078177519379       0.03851727706409
H         3.45494488625077       0.09444261913070      -1.27684321033446
H         4.83681245803143      -1.34819905859221       0.24909687267276
H         4.66659812153252      -0.12267683056010       1.56244086179124
H         5.99569323774324       0.34335922809360      -1.18656631568186
H         5.82099627188877       1.57748982527840       0.12890322380592
H         6.84082954860087       0.11221725231888       0.39086466334875
P        -0.99879724834321       5.06943154460494       2.73604730345265
F         0.28362190743254       3.92221981884633       2.62024262538497
F        -2.37848692514601       4.41067418843938       1.94156983063709
F         0.32125604590218       5.60274818445775       3.70203059153766
C        -1.67567349042038       3.75251300310899       3.97942593780997
C        -0.35380960938723       5.24538252894323       0.91927046267600
C        -1.61266844256112       6.85010946972293       3.11608763458128
C        -0.89624434624003       3.61044238993949       5.30480046874565
C        -1.15825111328723       6.15992857794724      -0.03999305198175
C        -1.92653047920610       7.20567687034254       4.58111594422265
F        -1.65247289938770       2.50279026116264       3.37349457955300
F        -2.99970943186023       4.01893693938742       4.28965508243786
F        -0.31941578818750       3.99305915474245       0.31540390813259
F         0.94370214454301       5.73286286423370       0.95756187437953
F        -2.76583271528795       7.07362454988829       2.38542183220723
F        -0.65181264321001       7.75406272956936       2.69417669036433
F        -1.45212782805377       2.57995687378200       6.04216020929915
F        -0.97179649893316       4.75848726956885       6.06144341175637
F         0.43336948756941       3.30389157235853       5.08028714503231
F        -0.68161213407915       5.97760893742346      -1.32659646761102
F        -2.50595623429470       5.85458643206555      -0.04611307802364
F        -0.99516714248237       7.49480157009352       0.26773283440900
F        -2.86292470505773       6.35297741401053       5.12384946648143
F        -2.45501743679538       8.48393703498034       4.62190117653025
F        -0.77911954649750       7.20588819919661       5.35264676533539
