33
C9H17BF4N2 optimized with DFTB in AMS.
N         0.33775665972918      -1.64248911870029      -0.15713746942589
N        -1.54118126685263      -0.84006524838766       0.52100385216908
C         1.69084448231198      -2.19375929329873      -0.10968582158229
C         2.69988999043874      -1.24099400265085      -0.75354902235133
C         2.75891972456083       0.10826043869998      -0.03004535006609
C        -0.41727422832985      -1.42912751958605       0.91536416054225
C        -0.31519056611204      -1.16749264758248      -1.26538020398390
C        -1.49891174048734      -0.65674765766771      -0.83608593185102
C        -2.54729425263707      -0.30768888629833       1.43705616300345
C         3.78683224747996       1.03396448356660      -0.67511571570663
C        -2.49032416582286       1.21559506220835       1.43602562538840
H         1.93442806469969      -2.34354369881930       0.94580287633300
H         1.68671179657985      -3.15826185331097      -0.62725254552023
H         2.44862049554707      -1.09471491072884      -1.80943784834834
H         3.67810595135626      -1.72978529257872      -0.70870619881974
H         1.77314206675736       0.58025318615700      -0.05620092432997
H         3.01687889784631      -0.05733283180622       1.01919017019508
H        -0.17579731970349      -1.70079023826569       1.92877757556913
H         0.10322212224300      -1.23191051126291      -2.25424774669357
H        -3.53033496863343      -0.67238437470612       1.12416455943030
H        -2.30725449843156      -0.69209681643816       2.43159069019582
H        -2.30243687937920      -0.19159345828198      -1.37965648769941
H         3.52983007544265       1.22930673516478      -1.71792841640630
H         4.78233491677382       0.58855032215901      -0.64050800399105
H         3.81273298369951       1.98292682132956      -0.14019089548071
H        -1.48964112824359       1.54318806495466       1.71477914880850
H        -3.20663685990242       1.59669021587873       2.16225868799150
H        -2.73573876428473       1.61232062692738       0.45116016970977
B         0.83488056455754       0.02874011864966       3.08820348336769
F        -0.37542195316914      -0.52003398889807       3.57748144109209
F         0.50826313340611       0.71658286007649       1.88306794121084
F         1.67760833562478      -1.05195299337750       2.71879917436095
F         1.42955105553471       0.85497606267435       3.99096400048862
