79
C23H36F18NP optimized with ForceField in AMS.
N        -0.54076151671002       1.78733704025277      -0.18899010669880
C        -1.41683059230919       2.33334734718359      -1.27709593136996
C        -0.21057528146036       2.89773795759913       0.76401566420394
C        -1.20891420582642       0.66543529111463       0.55979824716936
C         0.73018020446153       1.33182589272330      -0.85236446099912
C        -2.69223795212622       3.02690645062486      -0.76942540467995
C        -1.44479255381296       3.63633084854932       1.32114402567121
C        -2.33823043329737       4.15216175048695       0.19726899264211
C        -1.52100127304746      -0.60546371897298      -0.26835802894332
C         1.76764939856438       0.64677491299947       0.07254230466308
C        -2.17558219199949      -1.67764096835204       0.61327482515362
C         3.02778379705688       0.26862113199456      -0.71774557645110
C        -2.48124651213503      -2.94622909150946      -0.19231696656499
C         4.05547959805795      -0.43558518372326       0.17695676537080
C        -3.15299505741973      -4.00709076659669       0.68698133539315
C         5.31927198996492      -0.79073273652617      -0.61519194567972
C        -3.44942759868439      -5.27519970596945      -0.10818499054413
C         6.33741337193487      -1.51184470240084       0.26270375312952
H        -0.85623351059564       3.09070382982070      -1.87408106009382
H        -1.70272728352905       1.54690320710311      -2.00565341891714
H         0.35780158290576       2.51670039885363       1.63947579304816
H         0.43638710763024       3.65806644530204       0.26841015345337
H        -0.59062426970875       0.36943810686971       1.43560131416355
H        -2.16561759796839       1.00116330009479       1.00466461475500
H         0.50207243627027       0.63894292988517      -1.69282942045801
H         1.23712666444259       2.20065224744077      -1.33331307177004
H        -3.23533589422162       3.46012139968012      -1.63716580385962
H        -3.38259356779860       2.30263789656124      -0.29035903265714
H        -2.02669467902753       2.98074451242491       2.00186761048819
H        -1.10143721710172       4.50135929852439       1.92894057817826
H        -3.26949638145949       4.57869882265059       0.62830728413296
H        -1.81097994287270       4.96278045159487      -0.35277188353708
H        -2.22225171839912      -0.36714989680684      -1.09331518299028
H        -0.59329114098310      -1.03469503363321      -0.69769110862260
H         1.34729528886618      -0.28088239848094       0.51174009540150
H         2.06727800370871       1.32859819296391       0.89397445074347
H        -3.12194440814751      -1.27630156622004       1.03882307559496
H        -1.49140488596232      -1.93312822453533       1.45248134474712
H         3.48317798657076       1.18912993891816      -1.14539944782051
H         2.74793112847377      -0.40828292154429      -1.55509170588647
H        -3.15528313006025      -2.69147076860333      -1.03988608581016
H        -1.53326079062432      -3.35666594831711      -0.60523951252870
H         4.32815645443300       0.23286084075767       1.02340237468330
H         3.60653074571072      -1.36539851948249       0.59110112280045
H        -2.48712734465593      -4.26477099042551       1.53936411028588
H        -4.10722828359436      -3.60685800561276       1.09398786930527
H         5.05370592943070      -1.44881175192946      -1.47115763281621
H         5.78316953916680       0.13728592771704      -1.01513716283896
H        -3.93864241379242      -6.02202264371444       0.55202611052425
H        -2.50728028685762      -5.71252801606851      -0.50209237973649
H        -4.13162976494455      -5.04910946333609      -0.95528660684766
H         6.63214022702150      -0.86818458431555       1.11780748404838
H         5.91029070393074      -2.46258370989827       0.64614176781416
H         7.24419017466306      -1.74576574497138      -0.33373562956923
P         9.07907886503115      -1.61927295787063       5.57296225272283
F        10.06418777039859      -1.77467449539447       6.97987005678785
F         9.82075639264810      -0.48208160524921       4.51170928469074
F         8.47043128134322      -2.90484334749511       6.54104122061571
C        10.55382585506475      -2.59425246344491       4.79057100280226
C         8.70907679238963      -0.02550508496215       6.60758354810459
C         7.41020036395599      -1.91105552654628       4.66723819835686
C        10.70894941050074      -4.06292047903952       5.24214758955750
C         7.81523948917438       1.05964071830971       5.95431930933521
C         7.20140122100419      -3.26404883826180       3.96229557537476
F        11.74308634306253      -1.95103688799219       5.11402417688869
F        10.45815646686735      -2.58383701820208       3.40805916600956
F         9.90673297445123       0.60637774042632       6.92866040822097
F         8.09524403009194      -0.40099957595408       7.79303372556960
F         7.26243295592360      -0.92408602513483       3.70994559933117
F         6.37655511951316      -1.78406780658810       5.58030175995415
F        11.84946019415079      -4.59109985816929       4.66340537747987
F         9.63830028916727      -4.82956491431565       4.83879054619571
F        10.84398744804217      -4.16097018253704       6.61486093615607
F         7.85028981164679       2.19474733243389       6.74551195416659
F         8.25955426978928       1.41376837142994       4.69463432585082
F         6.49730003032844       0.65956499483498       5.87665878164678
F         8.18288977801381      -3.50843137213915       3.02621665996502
F         5.98858834633014      -3.23212702879396       3.29699539842742
F         7.14568940187897      -4.30091089228926       4.87491571721538
