42
C10H18F6N2O4S2 optimized with ADF in AMS.
N         0.32344323417974      -0.93250571126568       0.06374488806410
C         1.33363716117166      -2.05804240784036       0.23683171086283
C         1.09549097918857       0.28187370491243       0.53171442729299
C         2.15668197828266      -1.69194280142932       1.47709096166127
C         1.87355047335097      -0.19439447058887       1.75164915181205
C        -0.87142819721362      -1.17407156011464       0.98151176976722
C        -0.09071483038568      -0.81068787483550      -1.38578511368493
C        -1.82515702687727      -2.24559103902506       0.49587440945348
C        -1.05086857949968       0.33047485334588      -1.65147611007359
H         1.93595047331907      -2.08818549906730      -0.68040019319091
H         0.78609333460936      -3.00128817892272       0.31423258271157
H         0.40473514936897       1.11340783436788       0.71721793273535
H         1.77299396939794       0.54553297547087      -0.29496240151412
H         3.22017641157373      -1.88263790394853       1.27697605137514
H         1.87585654364227      -2.31370316232876       2.33592554798037
H         1.27888104096483      -0.06411735618762       2.66834831768534
H         2.79133035434985       0.39788845742809       1.87526798532258
H        -0.44093099170633      -1.45146779458203       1.95384756238080
H        -1.37296411193431      -0.20058614762633       1.09510425501606
H         0.84755378715279      -0.67551552776220      -1.94549469316842
H        -0.49122479171904      -1.79059805682969      -1.68121920359237
H        -2.52788209293366      -2.46457474141316       1.31416469418780
H        -2.41368799538293      -1.91707554726069      -0.37154997580725
H        -1.32239149964851      -3.19172635820688       0.24114398787373
H        -1.28988555459389       0.32873830692977      -2.72565209525762
H        -1.99935988966896       0.22074774491759      -1.10704861883357
H        -0.61440806724700       1.31157823199764      -1.41332399036534
N        -0.20481186522152      -5.08485283340359      -0.36226849612780
S         0.82307125308523      -4.91651487455490      -1.59682578452969
S        -0.03937895796223      -6.21344909213169       0.78910315369885
C         0.61129213639983      -6.43826397805901      -2.72884934052497
C         0.87792505741495      -5.29527029070851       2.16125491440742
O         0.28858115103327      -3.80503859928155      -2.39383585308016
O         2.24426069653008      -4.90348515669151      -1.25575535414906
O         0.83016362907104      -7.32926922115233       0.44833679375947
O        -1.34903609975522      -6.42106098672579       1.38715400532056
F         0.85816807390372      -6.05134377042293      -4.00603784313474
F        -0.64820258313611      -6.92290128069440      -2.66113039692115
F         1.48014837235350      -7.40910754885569      -2.40161632079933
F         0.99788058067608      -6.08618231622298       3.24829593470252
F         0.18133268603432      -4.17126006993160       2.53687794674053
F         2.11642449823152      -4.89657627739834       1.78092821254299
