22
C6H14ClN optimized with DFTB in AMS.
N         0.50258252121126      -0.09035228892767       0.05615100274663
C        -0.25397446765738       0.96574130933011      -0.69055150200511
C        -0.51291644789376      -1.12957899824701       0.47631826144188
C        -1.65793119290773       0.92002663263721      -0.10771312599475
C        -1.88654862924596      -0.57557787743996       0.10799140483731
C         1.15328999914869       0.49574960871404       1.26127378518470
C         1.55591994910482      -0.69395117861497      -0.80387256178442
H        -0.26724225660845       0.69152080558003      -1.74829549918575
H         0.24786571872246       1.92613182238816      -0.57170382263149
H        -0.40184846964303      -1.29827105758054       1.54647155085768
H        -0.28591841532454      -2.06510526217923      -0.03309252502846
H        -2.38491891996325       1.35651286149682      -0.79331940206632
H        -1.69968005029930       1.46095699606953       0.84099666844748
H        -2.61280902304643      -0.76573740113782       0.89909918939363
H        -2.24962339517823      -1.03653159445105      -0.81428805812680
H         1.89383603236684       1.22816432500485       0.94448920492783
H         0.39499923377333       0.97118924035677       1.87970502551192
H         1.63329610303385      -0.32306221387362       1.80430695373599
H         1.08811832074235      -1.13173084027696      -1.68351479183043
H         2.25782706201523       0.08423168835852      -1.09845350453691
H         2.05485826889420      -1.46725275628539      -0.21259090953310
Cl        1.83040512105502      -2.58825052652181       1.72974336153850
