45
C13H25BF4N2 optimized with ForceField in AMS.
N         1.36885796287553       2.27905353179068       0.03702881763181
N        -0.83554127575615       2.43309182548976      -0.22342809258771
C         2.74868315351118       1.86627931998526      -0.21079033100084
C        -2.16876250799733       2.23516312450783      -0.79108999560779
C         3.01758232861437       0.46586014439819       0.36184242446056
C        -2.41068553242129       0.75548322473756      -1.12797853347903
C         2.08452565052730      -0.59270775614832      -0.24587829909234
C        -2.35017390388399      -0.13437879594680       0.12216579275346
C         0.34240192577819       2.19263530331594      -0.83195229920893
C         0.82394655301333       2.59209704771816       1.22961861087192
C        -0.54254270745736       2.69315482622511       1.06649824109375
C         2.43509676351899      -1.99909365050391       0.24890646814675
C        -2.55225747808510      -1.60978124798508      -0.23703114118718
C         1.45708775285844      -3.03258334032008      -0.30426349453871
C        -2.47713139704266      -2.49245523603342       1.00654743231721
H         3.44177485515543       2.59712931282947       0.25878069049878
H         2.95219484033555       1.86542615739944      -1.30434276842981
H        -2.26616453810337       2.84409960617047      -1.71514740506302
H        -2.94524904681268       2.58328663438909      -0.07450019471886
H         2.88862582359076       0.48628822787352       1.46619096639351
H         4.07428292630122       0.19493406949866       0.14655449322330
H        -3.41307269206899       0.65738757187397      -1.59892099608233
H        -1.65500986594885       0.41557035933587      -1.86928401349042
H         2.16026069657117      -0.56184017211237      -1.35523477393390
H         1.03558610240309      -0.36700762732251       0.04239588030015
H        -3.13748666585101       0.18534584748637       0.83984998826894
H        -1.36040577649815      -0.02123751975928       0.61433049385602
H         0.44171507344519       1.86997750503861      -1.86095554752676
H         1.37067910998720       2.67059829652893       2.16021962284127
H        -1.27319928230730       2.85770407145221       1.84610393761358
H         2.39691496064725      -2.02649572635169       1.36008388269100
H         3.46465127261654      -2.26517139037110      -0.07523160969399
H        -3.54457130984202      -1.74773163266499      -0.71907344715674
H        -1.76620455542364      -1.93045800533444      -0.95545335993741
H         1.48296333782367      -3.03677830032700      -1.41484736005888
H         0.42518849015553      -2.80358649265621       0.03307460587149
H         1.73199625600854      -4.04346511205861       0.06306122263828
H        -3.30010130446439      -2.24001194294238       1.70834949730374
H        -1.50424709539327      -2.35312593819628       1.52475961117561
H        -2.57316612325713      -3.55923262292910       0.71380075372600
B        -0.98778202387835       5.99911312687883       3.30719307007439
F        -1.14645344017193       6.81695104372222       4.45733246805478
F         0.33962638353955       5.49573856834247       3.26292185431317
F        -1.24154623798523       6.76794163553795       2.14038882788221
F        -1.90428481152781       4.91663953993702       3.36933808569294
