32
C8H16F3NO3S optimized with ForceField in AMS.
N         0.14862114190777       0.29848697532825      -0.07644464769648
C        -0.45117662430815      -1.00735058914530      -0.46550776702066
C        -0.95239795290141       1.07048870428514       0.57533949602126
C        -1.95777476441135      -0.85520510433194      -0.42385149165813
C        -2.18130867241762       0.17793586316292       0.64873769653688
C         1.27090588656342       0.11727541193732       0.89481107118382
C         0.61527033218107       1.03071945649398      -1.28279776630195
C         2.45383827841511      -0.70730117181500       0.36055219830725
H        -0.18559906808719      -1.81351744111214       0.25667044130265
H        -0.12552543841182      -1.35446003115881      -1.47310325712317
H        -1.22718208863353       1.98789572728236       0.00329768731348
H        -0.69460983075716       1.42497134031662       1.60012918859789
H        -2.46270412707598      -1.81533474027455      -0.17976148155474
H        -2.32754397468051      -0.47380187279190      -1.40105540728754
H        -3.12003487910558       0.74784480748476       0.47700143010081
H        -2.22474771515027      -0.31940345593094       1.64339111854767
H         1.66555155370316       1.10971087817729       1.21183101931578
H         0.89751112300066      -0.38449753731279       1.81721445053376
H         1.34832082735120       0.43537696736439      -1.86752409539320
H        -0.23333269778811       1.25033450549153      -1.96921251353291
H         1.09221901560394       1.99594167182497      -1.00034925001181
H         3.17515273720265      -0.88347399177873       1.18606150700564
H         2.12875202815727      -1.69526749145281      -0.02429748430725
H         2.98921560590960      -0.15579501469142      -0.43694265294343
S         7.79015033050937      -0.96958564745308      -1.99719608621981
O         8.89781771412111      -0.23729006849294      -2.76822493372922
O         8.41204195969689      -1.18467848936700      -0.60972759395703
O         7.80932734691728      -2.37778182248757      -2.60926498374372
C         6.17244030629700      -0.15289864666576      -1.99778394183767
F         5.72882211160497      -0.00482678655633      -3.29720115867721
F         6.28028336520442       1.08923685086517      -1.40356822358897
F         5.27453748338179      -0.92592686789570      -1.29082553068196
