40
C12H25NO2 optimized with DFTB in AMS.
N        -0.33503884420061      -0.35287260761329      -0.13679717305712
C        -1.00054068589812       0.69320257367062      -0.97796895806281
C        -1.14118843604105      -1.62432085332609      -0.20492699314680
C         1.01549609219818      -0.60669626899963      -0.75576936044623
C        -2.44352580372186       0.95409863425156      -0.56273719643899
C        -2.60889330559813      -1.43229506300494       0.14763171382990
C        -0.19782574882639       0.06931062268542       1.30100374515119
C        -3.26375645739359      -0.32950811084485      -0.67834377521989
C         1.88652119338912      -1.63689829211542      -0.03790609543033
C         0.57154076484378       1.35973815958560       1.52132486602666
C         3.19265382132930      -1.81486137566347      -0.80977331851536
H        -0.97585163653724       0.33307926496919      -2.01102250091812
H        -0.40510271380725       1.60624292968372      -0.91653169627444
H        -0.68465785359469      -2.31987967233919       0.50790408303343
H        -1.03662419339880      -2.00905594582168      -1.22375813406421
H         1.53309389676323       0.35563977894761      -0.80141494752730
H         0.82838488275523      -0.93650573992472      -1.78235216905075
H        -2.84547957415285       1.72160082700577      -1.23003231004964
H        -2.48618088605970       1.34202896324666       0.45775056196550
H        -2.70562639333293      -1.22311829332660       1.21590212988366
H        -3.10859209572937      -2.38554061512273      -0.04356192335662
H        -1.20089304658419       0.15247788346976       1.71680691152774
H         0.29089751381724      -0.76309162732187       1.81194693182492
H        -4.27961010613608      -0.15080564387736      -0.31827506465874
H        -3.32258514366959      -0.62939011283889      -1.73068431385567
H         2.10835819762613      -1.31359794426306       0.98005691206250
H         1.36959009850849      -2.59460566897009       0.03235710240908
H         0.62248448291226       1.51977063620842       2.59830243741093
H         1.59065755722529       1.30197597498205       1.14125893080548
H         0.07489917699868       2.22164123026030       1.07591078744935
H         3.81779870223028      -2.54572479540665      -0.29851685252752
H         2.99834898866947      -2.17140293680736      -1.82249058499671
H         3.73869574725304      -0.87207656284956      -0.87088732715414
C        -0.68196572989078      -3.76841670337324       4.10234653351859
C        -0.61400640341752      -2.71780157971176       2.97093766831675
O         0.34745487474705      -2.81177486285032       2.16908447432494
O        -1.52606570068007      -1.86851585425006       2.93658028321877
H         0.29174351799895      -4.23143429510500       4.24971834674374
H        -1.02065660842432      -3.29683608236679       5.02303004354255
H        -1.40349623417056      -4.53315778437201       3.81519250860570
