40
C12H25NO2 optimized with ForceField in AMS.
N        -0.55951191288171       0.31109046907805       0.16766946359594
C        -1.55985992942017       1.24977827253903      -0.43503500953092
C        -0.90286786727474      -1.10310368613669      -0.17575419886898
C         0.77197889038488       0.66899226377108      -0.42524881912314
C        -3.02748637357250       0.90247650822607      -0.12149497390525
C        -2.35074902092567      -1.48663885668164       0.17302345029321
C        -3.33674873596803      -0.54091310521956      -0.50171661456403
C        -0.51054232039572       0.50238693015011       1.64357703499498
C         1.97435404296263      -0.17145632184490       0.06933016989198
C         3.27485379486966       0.31197366471681      -0.58379613544652
C         4.47103830812606      -0.50347054914505      -0.10168864029035
H        -1.46297345329485       1.25622655260755      -1.54590268381510
H        -1.36914350880911       2.29393561385852      -0.09655857959322
H        -0.24154193424190      -1.81534762754495       0.36331259079997
H        -0.75498837062584      -1.28176960458142      -1.26583638624779
H         0.99911015810429       1.74130776236927      -0.22012782760173
H         0.73245824640829       0.56835103920023      -1.53505203871393
H        -3.68956698713157       1.57634639262797      -0.70717783638031
H        -3.26363372686991       1.07699121515010       0.94833009283000
H        -2.50381247886240      -1.47756882810629       1.27313930766591
H        -2.54614545127907      -2.52289796538975      -0.17828026289502
H        -4.37181685701804      -0.79560348858906      -0.18793766032753
H        -3.27159256572145      -0.65900661480773      -1.60591111258017
H        -1.51137465598687       0.43521798082267       2.11157321350385
H         0.10492300479967      -0.27912593564106       2.13740203145015
H        -0.09080779408795       1.49922358082739       1.90528184381203
H         1.83338810419735      -1.23975104242346      -0.19506562565467
H         2.08877074116526      -0.08100947961165       1.16837186301796
H         3.44577631452270       1.38173871208359      -0.33350610668024
H         3.19760163925006       0.21732712980716      -1.68891237538208
H         4.33596203058555      -1.57565126652576      -0.35880835468647
H         4.58865037056123      -0.40248410809432       0.99810084015589
H         5.39514976660886      -0.13345005976574      -0.59346233210701
C         2.42419256137861      -1.08824392531129       4.50284905108602
C         2.74203808029100       0.34568808514427       4.21817781690813
O         3.73768079007394       0.63286325663393       3.57421670491046
O         2.00863071294001       1.23163332730254       4.62695377753537
H         2.25730006850280      -1.62900745737532       3.54767496203137
H         3.27126235817721      -1.55812645744437       5.04595532351479
H         1.50918311735744      -1.17066475467635       5.12786178579648
