31
C7H16F6NP optimized with ForceField in AMS.
N         0.15658245940436       0.25491791516905      -0.08234063513394
C        -0.44469609025552      -1.05835904560732      -0.43830819589386
C        -0.94109444095155       1.03759011155531       0.56241343576510
C        -1.95049910204922      -0.89007526514360      -0.42742903429250
C        -2.17945771362050       0.15713854054952       0.63010587311281
C         1.28851188373505       0.09644707962269       0.88092682281746
C         0.60898763340460       0.95932786457400      -1.30995898409859
C         2.48823077607994      -0.69685246759311       0.33576411901187
H        -0.19460075958046      -1.84004370890603       0.31588431112187
H        -0.10599592314478      -1.43880807569318      -1.42908712646092
H        -1.20421589572800       1.95473092175587      -0.01465773384140
H        -0.68592291340742       1.38698548648845       1.58925173212709
H        -2.47166145216673      -1.84204135135099      -0.18659026762713
H        -2.29615091563389      -0.51248435240419      -1.41518057460202
H        -3.11043458333532       0.73514818532736       0.44268482963199
H        -2.23982313864740      -0.32829008541330       1.62995064388212
H         1.66149948440912       1.09615225497209       1.20059167713660
H         0.93099112689357      -0.41835632698965       1.80284611183877
H         1.34871677547170       0.35641641426502      -1.87896703899125
H        -0.24619226927165       1.14698381216328      -1.99735669374202
H         1.07293955013484       1.93841193409824      -1.05530931166538
H         3.18304063325851      -0.92308856865792       1.17180079607224
H         2.17371698411078      -1.65731896684621      -0.12086095641944
H         3.05063480466867      -0.09725630934002      -0.40963796144381
P        -2.64711069157652       5.58360514734197       1.08928539045183
F        -3.56561970859311       4.44421644745291       1.98836957125648
F        -3.55394269802271       4.96765974168714      -0.23302755620166
F        -3.74391939527039       6.86988812907055       1.39432844446482
F        -1.83166390095297       6.64004397058949       0.00815277106639
F        -1.83626902284371       6.07610693365676       2.52096681818248
F        -1.34337297861929       4.49074920380584       0.85718161357399
