61
C19H36F3NO2 optimized with ADF in AMS.
N        -0.31132009716468       1.08450775092167      -0.16266325878314
C        -1.10537542994746       1.71162789403402      -1.28712184441413
C         0.12227897288155       2.17861710898347       0.79014681780784
C        -1.12594450730762       0.02780262844768       0.59324480980355
C         0.92830865254106       0.42248684632024      -0.78483108811168
C        -2.29839312924671       2.51297202906076      -0.79584413699923
C        -1.02118825712243       3.05620992623757       1.28137911410753
C        -1.84069270610641       3.63671172549874       0.13183366430670
C        -1.99840478661871      -0.86854324967629      -0.26510079265594
C         2.06082812825535       0.09949303990829       0.17022388886129
C        -2.60634151833630      -1.96630867030325       0.61278786845322
C         3.13130755834603      -0.69857138529211      -0.58183576366360
C        -3.48554510858552      -2.92271149200223      -0.18952584061998
C         4.20124534079294      -1.24930133499122       0.35855280520956
C        -3.93340489882395      -4.12912814625291       0.63293809554120
C         5.13475393506086      -2.23217918669353      -0.34663116834271
C        -4.78386116557327      -5.10743511358281      -0.17255771280098
C         6.18420768246555      -2.82164495219863       0.59207966060764
H        -0.40061426440024       2.37511637838384      -1.81312550404321
H        -1.38652764645524       0.89951320096392      -1.97070809956173
H         0.63609662800094       1.68566561965696       1.62588653765470
H         0.86099677521308       2.78110511662460       0.23647031650678
H        -0.38318727350770      -0.59963570046695       1.10622119516658
H        -1.73075719731741       0.56505430113279       1.33531852580270
H         0.57175392552615      -0.52240167388579      -1.22278218456011
H         1.26330172165185       1.10854902232700      -1.57965134879934
H        -2.81573215338508       2.91740077940495      -1.68154879799365
H        -3.01948758674448       1.85792594093776      -0.28050289977881
H        -1.67800616615987       2.48721125370157       1.95958406430802
H        -0.57269820968038       3.85779595442725       1.89128867078091
H        -2.70542204855949       4.19517602773704       0.52260959712192
H        -1.22375468672108       4.35418766340768      -0.43941565167126
H        -2.80357536152971      -0.30265269008356      -0.76536998411847
H        -1.37681929514660      -1.37005261752148      -1.02420675532448
H         1.68311882542825      -0.55059657112387       0.97601381160297
H         2.50563225703544       1.01019857418943       0.60800464808564
H        -3.19354309525842      -1.51890516674049       1.43813086783884
H        -1.76812558801765      -2.53506158567993       1.04896680169152
H         3.59808789967245      -0.07207716251123      -1.36612942919899
H         2.64329795505043      -1.56629840807414      -1.06156796025561
H        -4.37150129286519      -2.39002876703119      -0.58783058624945
H        -2.90736543348068      -3.28510306170630      -1.05854322644796
H         4.78499910425219      -0.42816910636592       0.82006111605882
H         3.69118640315565      -1.78772397116512       1.17940190601719
H        -3.03426877526641      -4.64737398254003       1.00738895781253
H        -4.49614219456056      -3.78425665750506       1.52046769325734
H         4.51270758253468      -3.03980202569500      -0.77009899641042
H         5.63371427674921      -1.72755012638547      -1.19541303372463
H        -5.07764107070050      -5.97592413635401       0.43602106829280
H        -4.22099004547118      -5.48032483481066      -1.04330174652919
H        -5.70363215758464      -4.62628454780641      -0.54475571879246
H         6.83816874908551      -2.03772887071148       1.01002776277211
H         5.70057747472128      -3.34055017191561       1.43626146997228
H         6.82074492406799      -3.55246577857550       0.07056272674078
C         0.97106242686773      -3.57693042934295      -0.33315490031843
O         0.43370242484392      -2.52561262404817       0.11951678138417
O         2.01238485245798      -3.74687210725713      -0.99158103701739
C         0.13612985952868      -4.87651217378935      -0.04634358228257
F        -0.92740465495150      -4.96479338928087      -0.92546563738303
F        -0.40850695432023      -4.89357562902739       1.21695265636000
F         0.84491694703056      -6.02888381771321      -0.17996841547457
