55
C15H20F18NP optimized with ForceField in AMS.
C         2.67200146343585       0.39245481576161       1.50779221174453
C         1.65157465313906       1.34860588628182       0.91137245409039
H         1.25893560492245      -0.81840317265157      -0.92712370793698
H         0.32634896664200      -1.60612612901190       0.39030693829701
H         3.12448487455753      -1.33708214514305       0.26813382052176
H         2.16893553540755      -1.70000047045199       1.76167884196591
H         2.57893862772575       0.37965557593021       2.61597664506794
H         3.70848893498849       0.68871510408055       1.23464918131677
H         1.40629973356374       2.16793079208732       1.62588829061161
H         2.12440514976941       1.82341893487589       0.01909140804182
H        -1.25305354595742      -0.30473397776062       1.51674420763386
C        -0.44178671708387       0.43156940285512       1.70186130708136
H         0.10930843320103       0.07434441960409       2.59988204829537
H        -0.90529112611975       1.41185702820128       1.95130136256676
C        -0.22465185273069       1.24069022339134      -0.61921356726322
H        -0.36333126051446       2.31685387738260      -0.36347121922152
H         0.42458767662153       1.23370799705469      -1.52457157503137
H        -2.33532388815141       0.75799614663280      -0.16539088209272
H        -2.92957424828724      -2.01026714292946      -2.76024549008945
C        -1.62651354053819      -0.68726083016676      -1.64211368106214
H        -0.79760337500921      -0.78153286951154      -2.37647327917206
H        -1.50124788244699      -1.45083822979726      -0.85005368805120
C        -2.94550637183619      -0.97677695136410      -2.35405187884965
H        -3.09433854842423      -0.26821810956503      -3.19645910466150
N         0.45903641366107       0.55559174141359       0.52564874554503
C         1.01902856030861      -0.76826052068987       0.15914305389412
C         2.31755694831220      -0.96696745314179       0.93825511366849
H        -3.79490592553630      -0.88734275770375      -1.64352245623592
C        -1.62741474061519       0.71575035578158      -1.01886150655200
H        -2.02478314201964       1.42848774079027      -1.77509111094250
P        -0.15908582004553       6.23166340633967      -2.68636277926629
F         0.52096951239931       4.98500318204227      -3.66456886002756
F        -0.33074208011133       7.63860364242922      -3.66670806979255
F        -0.15705269809262       4.75172922365932      -1.80896891441957
C        -1.70234489125886       5.85394258709392      -3.78705178731239
C         1.71596691393228       6.69427899880089      -2.82353187978745
C        -0.62200778524807       6.92685876721270      -0.95687019646531
C        -2.38222959183216       4.48686926810880      -3.55265004555875
C         2.16275165142042       8.05630139454591      -2.23147575795060
C        -1.96301214118078       6.48765952458787      -0.34109841670746
F        -1.32253118675824       5.88291320846400      -5.12411857317373
F        -2.66118500984361       6.84118302216533      -3.62409721391431
F         2.09043821355250       6.71639782232544      -4.16369690976634
F         2.46042312766954       5.70997895139771      -2.19136652343301
F        -0.64128460791680       8.30779347190214      -1.03843596905655
F         0.35924173152452       6.56057405208928      -0.05094328481046
F        -3.42122111974739       4.34409261493172      -4.45535837209392
F        -2.91065995410477       4.39351284585813      -2.28448918327017
F        -1.49884300695848       3.44182860400850      -3.75110344416969
F         3.46601845289834       8.30314445312804      -2.62688083192617
F         1.38328321011480       9.10442644481913      -2.68258914538429
F         2.15303334394238       8.04337183603443      -0.85202399478698
F        -3.02539598984562       6.78349758077953      -1.16729382417356
F        -2.15223351978886       7.17849480542014       0.84299565112806
F        -1.95589317530649       5.13843491031983      -0.03864584766145
