37
C11H18F6NP optimized with ADF in AMS.
N         2.05165251629039      -0.35810925725477      -0.90345823846218
C        -1.77260275181009      -0.23150378614563      -0.66511616742664
C        -0.31863391687202      -0.16261599613486      -0.19973244961479
C        -2.76081102358136       0.01278378053050       0.47278518234731
C         0.64064081913370      -0.41420497157202      -1.35422433531785
C        -4.22073968112783      -0.05115265998390       0.02933393306298
C        -5.19127146838385       0.19430535178356       1.18116792394096
C         2.62035518598244      -1.46658354594414      -0.38861104229674
C         2.75609377352348       0.78192366155666      -1.04489695785889
C         3.93360934069321      -1.44938279901399       0.03594564803204
C         4.07262683451539       0.84963566052538      -0.63513320065224
C         4.67387618727145      -0.27911209237909      -0.08937021844759
H        -1.96669693499102      -1.22143861348052      -1.11753913287010
H        -1.93900837326820       0.51340741824601      -1.46489823834893
H        -0.11279141689015       0.82896326154758       0.24371481502998
H        -0.14699617685226      -0.91032007424163       0.59610928086062
H        -2.59053748154969      -0.73398797722128       1.27128871321066
H        -2.56131089253580       1.00278097564169       0.92520196385850
H         0.53877082888683       0.32614669193521      -2.15817175179065
H         0.50729239909003      -1.40103548473395      -1.81928379735755
H        -4.39291199149470       0.69514848586051      -0.76716908053119
H        -4.42163279194117      -1.03960252158103      -0.42214470012236
H        -5.02709973231496       1.18787611953189       1.62887541416540
H        -6.23638152596889       0.14435272890330       0.84165505643343
H        -5.05664406231997      -0.55711454324224       1.97568455960430
H         1.99661432844499      -2.35617737144936      -0.35989778950584
H         2.23684736547961       1.61012023150404      -1.52055222792063
H         4.37568083215655      -2.36517752376879       0.42653214752918
H         4.62632781613703       1.77625300482658      -0.78207438263893
H         5.72304462064557      -0.25567984716797       0.20737224230478
P         3.18201202482220      -1.43744960838489      -4.16724693571701
F         4.03764598363500      -0.55595606277001      -5.24865937169751
F         4.30744969880916      -1.09975717337346      -2.98281787297273
F         2.34527856315966      -0.04561700542799      -3.70731587465424
F         2.29527847033401      -2.30125975180235      -3.01479554008597
F         2.01269182015613      -1.75233914328195      -5.27312029262346
F         3.98778482803511      -2.80736797213709      -4.55716341916612
