22
C8H8F3NO2 optimized with ForceField in AMS.
N        -0.69189173994670      -0.01073391452558       0.18943623409903
C         0.01321261505440       1.15290622318836       0.33359950864049
C        -0.04210241926888      -1.19472581871575      -0.02218974068244
C        -2.15504321110735      -0.00446252838104       0.25137581150475
C         1.40864962296399       1.14884642576129       0.26061365706455
C         1.35230372406503      -1.23434711691963      -0.09979331803741
C         2.07933893914322      -0.05346088147089       0.04193357050105
H        -0.49811073955626       2.09330607057932       0.50067245955063
H        -0.60199864563366      -2.11586002688060      -0.13472237072566
H        -2.49835733740593      -0.65213152340264       1.08630226846681
H        -2.55534936603665       1.01938318044450       0.41668944139956
H        -2.57216732954955      -0.39014302559832      -0.70358978686673
H         1.96382475442038       2.07141126371878       0.36993561587078
H         1.86325144583153      -2.17329261495967      -0.26892405029085
H         3.16001509870262      -0.07022152289079      -0.01670982224700
C         0.71170940596295       2.49788560879608      -3.26822806091268
O         1.83413595735444       2.62538764431603      -3.73135147542028
O         0.37532855755662       3.17393102037418      -2.30923757599580
C        -0.25462177695420       1.52132714251262      -3.87057803922100
F        -0.60866521093150       0.57753682899085      -2.92499364211905
F         0.31486279456227       0.87860336905853      -4.95621289961084
F        -1.38869708172677       2.19238699120434      -4.28926663726789
