25
C5H9F2N3O4S2 optimized with ForceField in AMS.
N         1.10072930155612       0.00220053279406      -0.02141938920735
N        -1.12177498834860      -0.00190283314304      -0.00442805399969
C        -0.00888683355905      -0.76212031067365       0.01097670367244
C         0.67620307642130       1.28010670420660      -0.06385163960105
C        -0.70365977271766       1.27789093951972      -0.04897922746072
C         2.48613830123291      -0.45031905514816      -0.00256164983074
C        -2.50519026842349      -0.45968126925570       0.01583169032268
H        -0.00662007368294      -1.84492520515492       0.04561925426027
H         1.31929974070180       2.14886534081857      -0.10300147812430
H        -1.35204023283346       2.14457907195358      -0.06507758093394
H         2.53445159027489      -1.55999945346288       0.00997742681424
H         3.01321816146375      -0.07809518962815      -0.90604465897279
H         2.99393306046205      -0.05877373589477       0.90384224728696
H        -3.01518428836771      -0.06688364808950       0.92043368397156
H        -3.03246800631529      -0.09123545806808      -0.88921737207963
H        -2.54939003988947      -1.56941555230694       0.03027978053380
N         2.56303578331738       1.54396704869067       4.07957166452476
S         1.02125401227372       2.03409333035475       4.33077018499227
S         3.60051272389137       2.42087408786382       3.16605161977439
F         0.09964420278215       1.68372289706882       2.97965255636986
F         4.05699459838577       3.79611300717584       4.00444574793289
O         0.45019598072492       1.30947497839810       5.51582193419131
O         0.98269925931989       3.51656593195936       4.57425191223241
O         2.93286570704596       2.83689776683294       1.88674907150047
O         4.81866205028372       1.59820033098894       2.85783256312991
