38
C12H19F3N2O2 optimized with DFTB in AMS.
N        -0.02550423251974      -1.53433212481212       0.50525669417740
N        -1.96261397240558      -0.59293804604114       0.47240431227444
C         1.33875911215541      -1.87402023157135       0.88171535513516
C         2.33897132336521      -1.09574687838040       0.02137699062747
C        -3.13514457518425       0.16181426256846       0.91621897262670
C        -0.82255663578409      -0.68031651637316       1.15197078463512
C         2.24637895913190       0.41572138265577       0.25315473601456
C        -0.67736319744314      -1.99714982509172      -0.60932805566487
C        -1.90480022333493      -1.41283322185209      -0.62042092268848
C        -3.74503013835261       0.97625624847915      -0.22204706238982
C         3.25549191035726       1.17045791648839      -0.60971468533617
C        -2.74286983640071       1.95230299776798      -0.83319129186209
H         1.46868018127698      -1.63721921255858       1.94111189110657
H         1.47038777720461      -2.94952658305114       0.73685811380193
H         2.15560714310562      -1.32129371611590      -1.03332570948054
H         3.34338240498300      -1.44779796543811       0.27293518675934
H        -2.81165231814646       0.81008799192742       1.73595184830032
H        -3.86090606145355      -0.56262108068821       1.29867785402897
H        -0.58581614130673      -0.16644581748237       2.06741574190727
H         1.23432313129731       0.75920433539945       0.01346723765461
H         2.43201205035791       0.63309924251869       1.31048654554109
H        -0.22974316590410      -2.71378449556304      -1.27442394120633
H        -2.73139291669260      -1.52001149702376      -1.30654251794535
H        -4.13007856723799       0.29787545785011      -0.98780172892734
H        -4.59344938128258       1.52734915309509       0.19232978537628
H         3.06991187183652       0.98083011753962      -1.66741634653695
H         4.27226862493030       0.85573339868780      -0.37268222700277
H         3.17106285298511       2.24154292092872      -0.42786324575049
H        -1.89610602487345       1.41528840330483      -1.26371324400002
H        -2.36647031523865       2.64427063936528      -0.07756785223359
H        -3.22433967607035       2.52802750248062      -1.62282654940607
C        -4.64738025309560      -2.44474682383575      -0.08763429492588
O        -4.76703026304850      -1.85952856528594      -1.16355284237035
O        -3.65159077435400      -2.89704488500743       0.47980376168802
C        -5.98824799829053      -2.51440096109636       0.79868006871604
F        -6.13050265653372      -3.65441993097267       1.48740087059200
F        -7.11882008294300      -2.31984707868930       0.10961895988995
F        -5.92026540409023      -1.51127105542682       1.72050186307390
