22
C6H14ClN optimized with ADF in AMS.
N         0.56993287493869      -0.03836878339013       0.13363193822988
C        -0.38389543111292       1.14729670260333       0.08376543113740
C        -0.32900487666403      -1.15614570595620       0.63746024969489
C        -1.73343997337302       0.57189792764736      -0.35779141441049
C        -1.64693936103090      -0.95717844596784      -0.10112036114805
C         1.68750163109580       0.21772886459578       1.09898452101754
C         1.10018673608246      -0.34737710755102      -1.22349569184038
H         0.04713124665338       1.91191905894129      -0.57834784035596
H        -0.45775186027560       1.48440468077281       1.13988321375735
H        -0.46586996430645      -0.92692172478103       1.71799972216868
H         0.17484464627069      -2.11863402373778       0.46730353243502
H        -1.96390568362422       0.78756669093929      -1.41204133158844
H        -2.51572488680124       1.02646670881572       0.26772048354058
H        -2.47217236837321      -1.30577828725006       0.53670005720275
H        -1.68840435704747      -1.52380311235780      -1.04466667769993
H         2.26917963963948       1.07522513691396       0.73451006907045
H         1.20830935031008       0.43592042777460       2.07900522008044
H         2.31699769141483      -0.68109693888845       1.14457192505371
H         0.26245400499425      -0.50902144423192      -1.91299085991235
H         1.70778936429836       0.50086939340562      -1.56601063643424
H         1.72064822531239      -1.25182254091671      -1.16512452996342
Cl       -0.75270881140135       0.71932880791914       3.29528238766456
