29
C9H13F3N2O2 optimized with ForceField in AMS.
N         0.06486863497066      -0.61750879402842      -0.44843411732522
N        -1.99449713039013       0.11551668533889      -0.04535811907550
C         1.43315803807157      -0.69062749288058      -0.95835484955468
C         2.45062217913044      -0.39808655273714       0.15139919752312
C        -0.85224781777243       0.33000763451036      -0.72681941686100
C        -0.51987136697114      -1.46025945152584       0.42735184424607
C        -1.79760154938589      -1.00374695529421       0.67852197333855
C         2.31675540953778       1.02687267865071       0.68700221245526
C        -3.18980920917349       0.94834680550122      -0.04488739811322
H         1.57259561142771       0.03617697510441      -1.78886763178135
H         1.61624764739554      -1.70691355654235      -1.36909408600252
H         2.31951935161730      -1.12041677730638       0.98602649943948
H         3.47519763031462      -0.53148415770501      -0.25801527693022
H        -0.68267975018231       1.16980414440094      -1.39021906745113
H        -0.04950631252583      -2.33321178314669       0.86155179369724
H        -2.52210135933440      -1.44722265163581       1.34924212013856
H         1.33594821130789       1.16223817288701       1.19039111885745
H         2.40825511723421       1.76178172444951      -0.14107553098392
H         3.12060721772120       1.22312451299342       1.42718302076553
H        -3.06448233647688       1.81024673201829      -0.73456923067905
H        -4.06369351016591       0.34731145580365      -0.37306397866954
H        -3.37427580677965       1.33438940013104       0.97960226335580
C        -3.94434651926738       0.20545691424689      -4.36314986570307
O        -3.64206855287426       0.64087116766126      -3.26380391960526
O        -3.06517297448017      -0.13412750754006      -5.13834704730844
C        -5.38491125959794       0.08591834720890      -4.76564796770154
F        -5.61102713850921       0.83881478709329      -5.90300934535257
F        -6.21403400933260       0.53898715181457      -3.75398555236814
F        -5.68191335030929      -1.23793453487184      -5.03125157755070
