37
C11H23NO2 optimized with DFTB in AMS.
N         0.90413033659424       0.35249384779918      -0.50802067592745
C        -0.49109237104081       0.87680930091782      -0.34932386663882
C         0.92072553579443      -1.13417656764106      -0.27926166369221
C         1.30877843315808       0.64143680760006      -1.93200880349068
C        -1.11588197010569       0.51561538005111       0.99350629659899
C         0.28611897854602      -1.54158994083615       1.04298119709802
C        -1.13204603700095      -0.99921376061151       1.18399629364877
C         1.82892048318338       1.04983686112255       0.42479190482242
C         2.75248192800000       0.27298941501761      -2.30181837682528
C         3.65718208153254       1.49813647945774      -2.41374609568714
H        -1.08987180862321       0.45229542365677      -1.16087435981610
H        -0.44794747029667       1.96198705138249      -0.47407455043455
H         1.97152385186576      -1.44343597965032      -0.28615902711224
H         0.39011005634377      -1.58928915977362      -1.12081754860950
H         1.13767767829780       1.71086128386079      -2.09025572253936
H         0.60681330067989       0.09001224857440      -2.56293143945913
H        -2.13557086473809       0.91048884702214       0.99797981643102
H        -0.56904659700653       0.99299444096305       1.81042291658951
H         0.91370063923111      -1.19808734817386       1.86982734812629
H         0.27246745314016      -2.63397111512414       1.06926301107291
H        -1.52503262826480      -1.24014497295298       2.17444980265069
H        -1.78927214966056      -1.45575651471522       0.43516130416567
H         2.82638868753342       0.63616885588716       0.28761766790904
H         1.80783697690596       2.11669974561122       0.20844361458143
H         1.52880695579333       0.85861694256758       1.45033523218980
H         3.18237186526185      -0.42167316234036      -1.57734744203874
H         2.72540867952823      -0.23608655416679      -3.26983444564311
H         4.65684448354249       1.18144270353824      -2.71021590752427
H         3.27754905654666       2.19542410499184      -3.16292669318882
H         3.73294408252475       2.01873258186202      -1.45965500433096
C         5.02067585570495      -2.06934961205725       2.16244234544693
C         3.87026214841357      -1.28862342648814       1.48632616100069
O         2.99179701576444      -0.81763936900292       2.23373244597597
O         3.91019448688167      -1.20939662328799       0.23400300512824
H         5.91053655439815      -2.04583884573078       1.53644059610541
H         5.23337266071343      -1.64342151610279       3.14103539133458
H         4.70211463405725      -3.10392146252791       2.28953981628203
