46
C12H19F6N3O4S2 optimized with ForceField in AMS.
N         1.91051162814363      -0.94882111270803      -0.22721272069252
N         3.12525744932023       0.90888450993555      -0.12165550606691
C        -0.37621526322987      -1.87594501787465      -0.07432472388819
C        -1.03085723230461      -0.50905945555561      -0.32758662244455
C         1.00640518525399      -1.98071811515143      -0.73092317820630
C        -2.44366509174621      -0.45579959925257       0.26419091151725
C        -3.08532298156179       0.91809059714386       0.03622734977965
C         2.36169881619363       0.12416108782600      -0.90509726669709
C         2.41105755376447      -0.84294694865246       1.02074273963134
C        -4.49968311954894       0.96716933137182       0.60781897869889
C         3.16421173224357       0.31275687488157       1.08618047845952
C         3.75654392633100       2.16879824612185      -0.49070685699334
H        -0.28236222217412      -2.05155717838368       1.01941877680731
H        -1.02269771805513      -2.67675087810954      -0.49525148201544
H        -1.08143211708822      -0.31996005289789      -1.42266973649964
H        -0.41409819380086       0.28960538098587       0.13966020822297
H         0.89347597995121      -1.88093682110148      -1.83206688566017
H         1.44195823857144      -2.98255150084176      -0.52563820418427
H        -3.07153197673333      -1.23991409504033      -0.21338978635296
H        -2.39226012084496      -0.65982821882889       1.35656304941488
H        -2.47134488593224       1.70479671931781       0.52692984169952
H        -3.12970926302800       1.13636102862191      -1.05316341286723
H         2.11785056977019       0.34147758406795      -1.93777804835514
H         2.22986694651760      -1.54459827655993       1.82480874630342
H         3.68787246512278       0.69724552528773       1.95205871749181
H        -4.48127951326514       0.77445201407517       1.70171136168861
H        -4.93831573016790       1.97201617422900       0.43193258293872
H        -5.14242063060529       0.20814191804984       0.11300057470231
H         4.85659805327250       2.08346736927511      -0.37057020600274
H         3.52824998576489       2.42249406609588      -1.54805446534735
H         3.37713798342414       2.98256608851305       0.16260481044785
N         4.56602358427069      -2.92251406968144      -5.17591350161911
S         3.96253361079706      -3.22940005354576      -3.68374731531151
S         3.68347403556265      -3.10599996272702      -6.54484317978423
C         4.33481760032163      -4.91228574890162      -3.23601608224324
C         3.06143718696654      -1.51793604264735      -7.05518805363781
O         4.61013680715894      -2.30625993042869      -2.69088334991887
O         2.47344145937634      -3.02628538641500      -3.66310817482260
O         2.53085677671914      -4.04483500485074      -6.31828655937065
O         4.56820045737482      -3.65044526930872      -7.63009580916477
F         3.85529981066978      -5.16837354725118      -1.96560974709375
F         5.70327602945468      -5.10434914365545      -3.25695399400102
F         3.73810287888900      -5.77738821344910      -4.13344759053566
F         2.30074552920764      -1.66699684462269      -8.19909590101481
F         4.12006309566543      -0.66870665631456      -7.31619441776130
F         2.27905377600702      -0.97909913304237      -6.05139563485085
