61
C17H24F18NP optimized with ADF in AMS.
N         1.50817668331435      -0.19961305695185      -0.48811277942095
C         0.02919010265480       0.06921590685990      -0.66532675189543
C         1.77779966541113      -0.41194506025957       0.99779539597018
C         1.84775913456082      -1.47928345405401      -1.23613443055786
C         2.34763857759529       0.96116641326580      -1.01829989853491
C        -0.44115169342052       1.27449864073028       0.13293737860816
C         1.30966618445847       0.74628663088868       1.86017803830620
C        -0.16209063894175       1.07829573858558       1.62476827155344
C         3.24502129254681      -2.02328640603234      -0.98576972361977
C         2.02617913657405       1.39599055826821      -2.43294591579116
C         3.59913722881739      -3.10716955608747      -2.00773834013065
C         4.99885308242550      -3.66549461934318      -1.75713912170505
H        -0.48315119555805      -0.84128822589217      -0.31387706482235
H        -0.15700317426437       0.17289904831311      -1.74303429676006
H         2.85346832298247      -0.57075175655280       1.11259024232412
H         1.23932857124727      -1.33986994560117       1.25497010653686
H         1.69723639892815      -1.25552966852969      -2.30260013843309
H         1.08162313006830      -2.21402866089041      -0.93916634037723
H         2.21347995360780       1.79076114586041      -0.31868772929602
H         3.39208004825493       0.65205516283928      -0.92162695534598
H        -1.52147787479836       1.39262837314914      -0.05346817497749
H         0.04299837561384       2.19423564468374      -0.23466323829640
H         1.95275088388989       1.62436706972540       1.69780928112263
H         1.48608021306364       0.44844521998717       2.90633520013447
H        -0.44604159687457       1.97968929649491       2.18917013492558
H        -0.79198127857739       0.25041644301465       1.99971572300408
H         3.31862175284931      -2.44706399353311       0.02855285675607
H         3.99951839735384      -1.22682970733334      -1.05038174242041
H         2.76253260653037       2.17010752195547      -2.69881614452041
H         2.13271339401812       0.58795137377115      -3.17028003622343
H         1.02800932956833       1.84607207376792      -2.53233812138304
H         3.54588159874370      -2.67723976599235      -3.02452535614360
H         2.85183406500853      -3.92101554408781      -1.96805287059455
H         5.06577079236349      -4.12087875139565      -0.75689915966058
H         5.75190024471962      -2.86445925021499      -1.80675406285901
H         5.25982946967894      -4.43414414013333      -2.49931903344377
P         5.99257637746527       1.49501578288460       1.22033983196432
F         5.73836679051125       2.55366099690697      -0.04812372479879
F         7.52176950873767       2.06987663030361       1.44980785142122
F         4.42701015280388       0.84907393437534       1.02810946288448
C         5.20599182273374       2.88861531668419       2.39596701679336
C         6.58350865174530       0.23510545260686      -0.20587119864109
C         6.32785835122514       0.22870917069691       2.73889461907074
C         4.39874102183782       4.05330008941284       1.73185069713490
C         8.00400018288483       0.40875642240107      -0.81656742055189
C         5.28515755447553      -0.85222955101165       3.18042911846508
F         6.16315548048512       3.53060791264877       3.14228199333673
F         4.30387134570067       2.32102007105457       3.28062107022122
F         5.71739392526895       0.36782659657663      -1.29547423769652
F         6.49184140153348      -1.09115584359006       0.15432756519003
F         6.56530762226886       0.95875031382341       3.88388627859669
F         7.48638357423375      -0.47202284567549       2.48480403375636
F         3.79538384360339       4.78900405729327       2.70994374031655
F         3.39795907261757       3.59346996851591       0.91897249241641
F         5.17768896998044       4.88993334586136       1.02074003755962
F         8.13977487494003      -0.44273136518355      -1.88191005304245
F         8.20409925055203       1.66373823051015      -1.27135947507017
F         8.96831673605221       0.09905938586859       0.07445667003173
F         5.81204273610706      -1.59737273293446       4.18898105180870
F         4.95174476110160      -1.71030176624334       2.17823455392328
F         4.13234997722027      -0.30455443626202       3.64081902138092
