45
C13H18F6N2O4S2 optimized with DFTB in AMS.
N        -0.06577864565735      -0.06826101593253      -1.64258919844382
C        -3.11969285137684       1.53950363880590      -0.03835454099125
C        -1.98222531492287       0.52394252664041      -0.18572863768965
C        -4.00735397477027       1.18931441020176       1.15986115090871
C        -0.98397524574745       1.01163770166230      -1.23985840118310
C        -5.15915509762873       2.18851467548065       1.30241985934121
C        -6.11110349995576       1.78020694170432       2.42521196225034
C         0.02575500171954      -0.40610653006333      -2.93567691013194
C         0.60667548908873      -0.75219199950101      -0.70121188006115
C         0.82008040788264      -1.46689618143443      -3.33203772581350
C         1.40347073193706      -1.82102228955078      -1.04437259148209
C         1.51115679536702      -2.19610456432533      -2.37999544977330
H        -3.71973782342116       1.53744137545870      -0.95375124689551
H        -2.69941624905264       2.54364883225370       0.09115540336682
H        -1.47422315126120       0.39619516405363       0.77538357424463
H        -2.38776987950033      -0.44412583040947      -0.49004589231945
H        -4.40717274615331       0.18004926717120       1.02738854106088
H        -3.40394510677972       1.19174035444484       2.07477961003456
H        -0.37983971758530       1.83826621421811      -0.85406154615694
H        -1.51383406013495       1.34294856230823      -2.13550260830427
H        -4.75459693670526       3.18561144055117       1.50811720879076
H        -5.71489306915749       2.24123310640485       0.36148459288492
H        -5.58616950561681       1.74505565214681       3.38118671801557
H        -6.92771089348122       2.49866571170087       2.50204084700351
H        -6.53290044104856       0.79455886008811       2.22469661131996
H        -0.54340114821751       0.18463359669315      -3.64278840357907
H         0.49091713758943      -0.42721998571084       0.32501859289659
H         0.86517538362144      -1.72588821707640      -4.38184256442850
H         1.92859051797188      -2.36193555725178      -0.26757335852811
H         2.12248272246283      -3.04344114610703      -2.66552093407542
N        -4.49913459507355      -0.35048410756798      -2.63617491609613
S        -5.06179488905669      -1.57551201514959      -1.73065248505665
S        -3.19088002827531      -0.69489765266112      -3.46498672751223
C        -6.71035701579406      -0.81832270547524      -1.34534204283628
C        -3.65322468693095      -1.66486194041280      -5.00638913328686
O        -5.32342470954170      -2.79010345738451      -2.45695895874399
O        -4.38135434873519      -1.68186733718470      -0.45811786981717
O        -2.20230685426138      -1.54216543328161      -2.80551957924636
O        -2.67500503264374       0.55730027603950      -3.99283283788411
F        -7.27751844814834      -1.46739548054405      -0.34333434809875
F        -7.50180690809636      -0.87263949641386      -2.40135479638125
F        -6.55672840028577       0.45315148428725      -0.99339723137299
F        -2.76038412396056      -1.38102900251466      -5.95016513742730
F        -4.85294049496696      -1.31494336347396      -5.43370480667137
F        -3.62425332399517      -2.96190416638846      -4.78069790282992
