40
C12H22F3NO2 optimized with ADF in AMS.
N        -0.86942525919621       0.30427006510605       0.19397723171838
C        -1.74438079391808       1.27155650121848      -0.58928799716742
C        -1.22569270800552      -1.12796191508493      -0.19547406992474
C         0.56477449058921       0.59594048329785      -0.20259838416185
C        -3.22792126773314       0.98499622386668      -0.45648246822990
C        -2.71197225123744      -1.41837671986333      -0.11641124369356
C        -3.53620580411750      -0.43204040958183      -0.93664445846782
C        -1.06047627212778       0.52450801430021       1.66766452241871
C         1.62700637390429      -0.25884610276501       0.46522175102120
C         3.01658644477284       0.10147501202981      -0.06850037022287
C         4.10987918500702      -0.72842687886000       0.59870837528759
H        -1.42794828449314       1.17142192739286      -1.64112544779329
H        -1.47542000062246       2.27911844197500      -0.23645085041705
H        -0.66787917125170      -1.78357912668348       0.48613461186022
H        -0.83685812326303      -1.25129948867563      -1.22099767532337
H         0.72931451431156       1.66201391943941       0.02386755858875
H         0.60868676575428       0.47015513603405      -1.29641946679280
H        -3.75523778438840       1.74154857801831      -1.06122429282200
H        -3.56385618147641       1.10248981945859       0.58747880783604
H        -3.05290111898926      -1.36201607977888       0.93431656854347
H        -2.85562737530161      -2.45638946094639      -0.45823731804264
H        -4.60746446923665      -0.64701080064079      -0.80374724089570
H        -3.31034533231168      -0.52143391376835      -2.01724925793448
H        -2.10217540114350       0.28584722367089       1.96546366333110
H        -0.39406263056328      -0.15217467953331       2.21084443007138
H        -0.80815323786217       1.57085658310987       1.88760708944140
H         1.44044043748827      -1.32823668510444       0.27555083436755
H         1.61445274159826      -0.11005898944326       1.55678634298921
H         3.20781378007786       1.17673754542255       0.09973461431659
H         3.04117837344729      -0.05567973871431      -1.16216237976543
H         3.94454989230117      -1.80394144030588       0.42744904337163
H         4.12106166730713      -0.55899221580784       1.68700122535716
H         5.10415134858746      -0.47189570565391       0.20559268791461
C        -3.72621815920272      -0.99404572567636       3.67204908047469
O        -3.72087056539141      -0.37758948936441       2.55941909049166
O        -4.19952555761345      -0.69897116223105       4.77296424433708
C        -2.98854191776241      -2.39082153944462       3.58991262062117
F        -2.88173529151802      -3.04176419883519       4.77412668615828
F        -1.68193065359722      -2.25904945600243       3.10941518589636
F        -3.61114101592243      -3.25158585037495       2.71454168584072
