46
C12H26F6NP optimized with DFTB in AMS.
N         0.19370500411765       0.17234660811255      -0.11141835872684
C        -0.01055606281820      -0.50230078441499      -1.44056869223045
C        -1.07118471270002       0.87590321577547       0.28012217016481
C         0.57951460365556      -0.81243961731677       0.95955729336692
C         1.27381416103772       1.20338332151033      -0.32210769636226
C        -1.19737277269895      -1.45239104772810      -1.44960472461560
C        -2.29399767265710      -0.03624689913815       0.29081561112614
C        -2.48095292851653      -0.72103977075244      -1.06215654110912
C         1.87283218983789      -1.57997704496399       0.69351288817543
C         1.69059271937886       1.99840650391283       0.91121940054643
C         2.24592898995116      -2.40383563349032       1.93082446388645
C         2.87135764409346       2.89115533965538       0.52525170143389
C         3.51356341804489      -3.21475756250121       1.66719117867926
H         0.91012266421491      -1.02789622580714      -1.69001936210506
H        -0.15919877038690       0.29236922342627      -2.17541091116635
H        -1.21937387245568       1.68292223876487      -0.44281603355597
H        -0.91778131801158       1.31183592405144       1.26940854799873
H        -0.24536057159273      -1.51948048768474       1.06549363694244
H         0.65640018528126      -0.24831461688785       1.89244298948362
H         0.90902835694846       1.88229846890777      -1.09652370176799
H         2.13697924203272       0.67590862538726      -0.72170510509999
H        -1.02548801787646      -2.29756460943251      -0.77769967396158
H        -1.28724958776735      -1.84912824242475      -2.46391766771195
H        -3.16298787854145       0.58738166484489       0.51765539339378
H        -2.20872201825316      -0.78456019214731       1.08338105397800
H        -2.72052458910422       0.02919922380353      -1.82249307219440
H        -3.31291316330932      -1.42678723167659      -1.00528367224157
H         2.69262180773157      -0.89915262525345       0.46160456724130
H         1.74460046271869      -2.25076045080313      -0.15790145397958
H         0.86564237561819       2.61642883682283       1.27896543562990
H         2.00395311648280       1.33108330473744       1.71768600734179
H         1.42252919143136      -3.08015543605199       2.18640930738321
H         2.40645076455209      -1.73299343371579       2.78217318429726
H         3.20220760592047       3.46040329412752       1.39334773560532
H         3.70048242268755       2.28118191826854       0.16676301792971
H         2.58361898344713       3.58769448624564      -0.26230745999380
H         4.33430701584456      -2.55688419144383       1.38003191366121
H         3.34521419545000      -3.92739030604302       0.85944489111579
H         3.80027724381412      -3.76337787069276       2.56418895479363
P         3.69008476422655      -0.55471441105875      -2.81392043895764
F         4.56332168551877       0.68682686298963      -3.39969236388850
F         3.94235605920348       0.00844432362310      -1.24981856578879
F         2.30110705678763       0.40205839038373      -2.87443845224330
F         2.74153398157816      -1.77547157474780      -2.15531355470072
F         3.36313850219732      -1.10844062203563      -4.30840087740659
F         5.00425713698463      -1.50138552293806      -2.68526532196701
