46
C14H26F3NO2 optimized with ADF in AMS.
N        -1.39461350576365      -0.06295592549023      -0.16480787117966
C        -1.53525944175317      -1.33113036663151      -0.98206766660766
C        -2.66256295692560      -0.06786381668779       0.65903918820472
C        -0.16945078087637      -0.11350198821265       0.72316952130497
C        -3.00344339222201      -1.35986763868552      -1.39689800001914
C        -3.75609255894791      -0.58250028360636      -0.28355414556882
C        -1.38230006995309       1.13852462847718      -1.10932712607448
C         1.12686898428613      -0.25361925483529      -0.04678779245447
C        -1.05311384066030       2.45381737118986      -0.43904010632838
C         2.34656617537168      -0.06587957966356       0.85404345985857
C         3.63919795388615      -0.24914578184509       0.05978942126028
C         4.89286322868277       0.06177510944725       0.87136760733646
C         6.16880313065744      -0.12035822320995       0.05259159437433
H        -1.29053131529111      -2.16088239570702      -0.30074271588362
H        -0.82430910257003      -1.31644921196777      -1.81529695690818
H        -2.83438836213816       0.93698731180358       1.06451507715997
H        -2.49107544362192      -0.76296307557481       1.49426205460164
H        -0.33522853435401      -0.96477710241205       1.40502385630435
H        -0.18433037498216       0.80658596356144       1.32653870182230
H        -3.35262779857964      -2.39686892150015      -1.49542549060197
H        -3.13383123030383      -0.87963666285179      -2.37700748649517
H        -4.34378608745839       0.24510480697703      -0.70551779725530
H        -4.45537355597889      -1.22448996384955       0.27100732162117
H        -0.62773774853518       0.94423053897690      -1.90123745512279
H        -2.38273391740255       1.16194652591360      -1.56273107138538
H         1.17764309838677      -1.24621826591850      -0.52714181968675
H         1.17486987298045       0.48861915113762      -0.86212499526390
H        -1.18400777008901       3.23916027063582      -1.19810442552500
H        -1.70109595766624       2.70254952868239       0.41625196293386
H         0.00084120627410       2.49577245604682      -0.13259522350181
H         2.32079581450355      -0.77327867699783       1.70586705364698
H         2.32348357237347       0.95244123710929       1.28861388317428
H         3.60368758348246       0.38218267793752      -0.84652685402034
H         3.68999353436907      -1.28945766451752      -0.31270726692390
H         4.83621568355695       1.10309626396044       1.24077737817242
H         4.92749120208574      -0.58489227880306       1.76860501453546
H         6.15075599482693       0.52400888177120      -0.84030639322749
H         7.06557715017016       0.12710495381400       0.64069652374776
H         6.26563142175984      -1.16118517586374      -0.29585230126324
C         1.69333508111677       0.37346399496130      -3.34887528470646
O         2.92307675289410       0.21429854034905      -3.35500824930940
O         0.96078252346525       1.25669898246620      -2.81593370459457
C         0.91005794473380      -0.78383755154206      -4.07133399293003
F         0.99500126300633      -1.94942685511006      -3.31733644014773
F         1.38541091424199      -1.07907250260915      -5.30783537793413
F        -0.44728002753868      -0.55651703992545      -4.21720341393971
