43
C13H24F3NO2 optimized with ForceField in AMS.
N        -0.21569933180136       0.32308079988429      -0.15042308675955
C        -0.89207073853235       1.30078105503101       0.76491284817548
C        -1.12284618250230       0.04668312843131      -1.31122301056701
C         0.11897462702119      -0.93144521397285       0.61098323150861
C         1.01673440138944       0.97225402527211      -0.71615089164840
C        -2.30322886263081       0.87051274297107       1.21442637815697
C        -2.52208099295573      -0.44622216516623      -0.90915295429317
C        -3.19649771143228       0.55700321756554       0.01872880422970
C         0.90317350894183      -2.00730528105717      -0.17983422885504
C         2.14363470326363       1.27773482043940       0.30155609321144
C         1.21888738669587      -3.20970493522222       0.70666484076862
C         3.30264522131599       2.00376535898213      -0.37600636709645
H        -0.29733878904887       1.46002505087740       1.68937325652914
H        -0.98962854901195       2.29452018678337       0.26951271098055
H        -1.27077357587215       0.97611613989351      -1.90961207030149
H        -0.67439278111114      -0.68296562254463      -2.01665597754247
H         0.69589586344033      -0.67880460309453       1.52742132084482
H        -0.79880716296593      -1.41942405654719       0.99217834044052
H         1.44596612091743       0.34869548635589      -1.53194803439062
H         0.74305899884901       1.93348412355262      -1.21029821921214
H        -2.25292104768170      -0.00426569682193       1.89544046496863
H        -2.76315160675641       1.69938550011768       1.79481139588368
H        -3.13893113039412      -0.55065153562812      -1.82668839437850
H        -2.47607156219672      -1.44721861781041      -0.43339765357075
H        -4.16357540483979       0.14112561460226       0.37511994032042
H        -3.41020282575673       1.49439278814627      -0.54078379850416
H         0.30818811560906      -2.37558958902937      -1.03942684171548
H         1.86722220406264      -1.60950913831199      -0.55432657145331
H         1.77624863220045       1.92686473134464       1.12091404389493
H         2.54515232410637       0.34163091803212       0.74018111974204
H         1.77906420868791      -3.96854235133395       0.12013529950163
H         0.28009989356077      -3.67224154061770       1.07869441741964
H         1.84326553705348      -2.89870145287217       1.57114475655811
H         4.10549424608287       2.19888539823083       0.36614734048871
H         2.95900348590654       2.97604381553276      -0.78896766114957
H         3.72040679293489       1.38328937203975      -1.19713569301408
C        -4.95840568043788      -2.84351373308778      -1.91792847875444
O        -5.47687364017025      -2.69840256965370      -0.82217299891558
O        -5.30700963620288      -2.13349054663164      -2.84769480985611
C        -3.89435812822996      -3.88201821376045      -2.12734170904571
F        -4.28764905753311      -4.75235313224257      -3.12687082116573
F        -3.67894048553799      -4.60075837933794      -0.96419830164399
F        -2.71293629523730      -3.26929523814139      -2.50172483618989
