31
C9H14F6NP optimized with ADF in AMS.
N         2.26939132660693       0.19377916575813      -0.52347810090144
C        -0.15123279884298      -0.15822083862051      -0.10873175010177
C         1.26658740725722      -0.41902912974807       0.38077056019296
C        -1.18669826860475      -0.78553896221673       0.82513249182680
C        -2.61245162613478      -0.53337160903873       0.34318832623802
C         2.67172519640565       1.46108725995919      -0.30139865516855
C         2.79563863558429      -0.53482004251765      -1.52775618816083
C         3.61078248327120       2.05463492009077      -1.12048865336952
C         3.73745207666738       0.01420928664774      -2.37486672459896
C         4.15476197093732       1.32448606221691      -2.17124859998338
H        -0.27295192616032      -0.56758957090104      -1.12837547822926
H        -0.32562752960558       0.93134990743076      -0.17834096614771
H         1.51059471121423      -1.48808423185830       0.43473954401941
H         1.45996315285798      -0.00405740807562       1.37890003468042
H        -1.00197727312119      -1.87230605445021       0.89904841642917
H        -1.05611288818215      -0.37685451983502       1.84306673895856
H        -3.34723723853174      -0.98956793995195       1.02258514811385
H        -2.82568238205690       0.54607242855329       0.28990665013730
H        -2.77073869525830      -0.95836743171183      -0.66057021462428
H         2.24133510285126       1.95519317863981       0.56580417689361
H         2.46018554790001      -1.56611688549878      -1.59956740386478
H         3.93886286490550       3.06964351401920      -0.90153280498938
H         4.16638911993194      -0.60443607029941      -3.16156086480329
H         4.92500482876174       1.76320237366645      -2.80688730110973
P         4.94338281630320      -0.94053170528274       1.62055728697903
F         3.72649458509125       0.19098281149454       1.92972578614874
F         5.99612342880159      -0.02746881441880       2.47861134623306
F         4.48920902380337      -1.76700567277390       2.96096705686677
F         6.09993528495992      -2.04422030939374       1.26974731266813
F         3.83039273170113      -1.83259624744342       0.71641921823139
F         5.31640320818560      -0.09059118534032       0.23460526943567
