32
C10H18N2O2 optimized with ADF in AMS.
H         1.95279901913945      -1.78553521844291      -3.57310036789975
H         0.45020458864280      -2.39824482639523      -2.81397201625879
H         2.04736764786903      -2.67769548523720      -1.99360683817719
C         1.45039919481247      -1.99373926699451      -2.62030276328070
H         2.49209994989095       1.60969370214954       0.06155717336283
H         3.40797054071622      -0.21716944826032      -1.81666518468608
H        -0.73566063730069      -0.81479877576695      -1.21694968906122
N         1.32863249355670      -0.75863661062555      -1.85893186996747
C         0.25121305320436      -0.37756725734692      -1.15523977777476
N         0.61061161906636       0.65863463671176      -0.37682241214231
C         1.95527715388174       0.89609933022225      -0.54701612885633
C         2.40624573320796       0.00399283417535      -1.47818114340298
C        -0.21889282363379       1.23233224468994       0.68505683135431
H         0.23722463488183       2.19738870268894       0.95270775254494
H        -1.21727147822014       1.44168805981761       0.26638394165858
C        -0.28112780796327       0.30660900287975       1.89648386250689
H         0.75440644092550       0.01261422148359       2.15823964275374
H        -0.80652904396613      -0.62368070234104       1.61058394672173
C        -1.00310448665205       0.97016963119181       3.06470530085104
H        -0.47128385563178       1.90007336093653       3.33873115055727
H        -2.02287505060447       1.27129606586606       2.75743441978714
C        -1.08305977423236       0.05297255913215       4.28233250923721
H        -0.07379145528556      -0.22628547103491       4.62190579439420
H        -1.62394142651502      -0.87548063587904       4.03943877170190
H        -1.60644218535681       0.54221101533169       5.11835625450474
C         2.81264428296526      -2.98072008806053       2.10913710597599
C         2.88910108450148      -1.83945070639906       1.07696362083917
O         2.71917952451523      -0.66538254680813       1.52702120202535
O         3.14274456649038      -2.17711933785237      -0.12239193601675
H         3.78365074900429      -3.05145468620535       2.62555754284638
H         2.05119847117099      -2.76954905653555       2.87429258978362
H         2.61345221831906      -3.94769207059142       1.62584866421727
