33
C9H15F3N2O3S optimized with ADF in AMS.
H         1.07614373053131      -0.19440036332077      -4.84634594705757
H        -0.68240816115945      -0.51276913301533      -4.61052764014259
H         0.44841851567595      -1.89788414505420      -4.72117599766061
C         0.33156994675120      -0.86092724429783      -4.38472977345565
H         2.21181183325991      -1.09846593243001      -0.14768653062637
H         2.25892847020882      -2.09109091555405      -2.74311675600774
H        -0.86079279554887       0.74372558064429      -2.39550507394247
N         0.53836463726538      -0.80456544933882      -2.94091538671894
C        -0.08034761547232       0.04985627432809      -2.11556574953485
N         0.50751924757196      -0.02193176120759      -0.91613739781459
C         1.55352046617554      -0.91786783989114      -0.98656909542075
C         1.57558915751833      -1.40636557941379      -2.25795562544092
C         0.22334561839619       0.86713728680474       0.21461848232808
H         1.11904949273325       1.49862822483040       0.33613939065660
H        -0.59618143661624       1.52810448582377      -0.10381195374779
C        -0.14454273812315       0.10227514766018       1.47879272962097
H         0.68161778183484      -0.57439208732782       1.76316612718807
H        -1.02552841763151      -0.53539423770999       1.27984538248214
C        -0.43415518137676       1.05853632053253       2.63569379610330
H         0.45424566783155       1.69162861704817       2.80876280793279
H        -1.25111874138631       1.74268703438592       2.34364186674496
C        -0.81010816267912       0.33138825869417       3.92440394829084
H        -0.00068274414679      -0.34030503272383       4.25155591433134
H        -1.71859818216657      -0.27650392610129       3.78734296597212
H        -1.00267336611094       1.04524950416829       4.73944005032273
S         2.10456761479878       2.20927290751034      -3.02605122019954
O         2.64822592362676       1.17564507066178      -3.93075462937428
O         2.54492537636642       2.11230555510910      -1.62084321462480
O         0.65519113955641       2.47420780357867      -3.20106009211641
C         2.90891821338863       3.78820456685380      -3.63223503881673
F         2.62706978991477       4.00985174737056      -4.94407280527256
F         4.26020633046892       3.72452880352440      -3.50030900115594
F         2.46880098414313       4.86208088645725      -2.92261175614284
