43
C11H24F6NP optimized with ADF in AMS.
N        -0.23626277493015       0.47136218942985       0.36276001887790
C        -1.35927395084433       1.25060646969817      -0.32495934434803
C        -0.75825708263074      -0.88716569337007       0.78982200991897
C         0.86193866071255       0.27373938259888      -0.66140216751781
C         0.28305032605034       1.23366729951484       1.59058574589206
C        -2.66183453446713       1.28505049083078       0.45552967013194
C        -2.02219732537725      -0.80725299889538       1.62856632693385
C        -3.13491460697551      -0.10999751542693       0.84961037739848
C         2.06796500134585      -0.52509507881000      -0.19207429178856
C         1.21398631974028       2.38735779305550       1.28084856855870
C         3.19195154323959      -0.45289124608352      -1.23064430683572
C         4.40851129974018      -1.27747638680073      -0.81866795140524
H        -1.49746520473488       0.75049314818282      -1.29795646657960
H        -0.97803389614955       2.26801795035725      -0.48774358303433
H         0.05973491299128      -1.38515524283722       1.32751318199289
H        -0.95627059958341      -1.44157420875781      -0.14358854226742
H         1.16134111500500       1.28296159481430      -0.98051043807042
H         0.38753401866678      -0.22170984331613      -1.52384807118394
H        -0.59824696596024       1.61084870141384       2.12486099237727
H         0.77848458956344       0.47811402329777       2.21895031899551
H        -3.39719757350162       1.79607645964975      -0.18821306054787
H        -2.56078396729248       1.91944483662160       1.34628255018908
H        -1.82816884097059      -0.27260112679252       2.57383334106808
H        -2.29996665763759      -1.84072148063104       1.89580109334756
H        -4.04643476011410      -0.03757913954927       1.46351307465690
H        -3.38844191261743      -0.70861692113705      -0.04711824514758
H         1.79595711640195      -1.58257199339966      -0.03462369388334
H         2.44382613854219      -0.13801422806956       0.76935395367892
H         1.33606263788173       2.95245385838314       2.21750601298439
H         2.20424682209932       2.06422236009588       0.92794453853701
H         0.76899979864788       3.10267718187557       0.57627562608438
H         3.48600559520333       0.60245077887000      -1.37281957393245
H         2.81391623048055      -0.80664107243623      -2.20699010763714
H         4.14498835093965      -2.33971919293367      -0.69724447618056
H         4.82044107059166      -0.92100516039068       0.13846606175573
H         5.20702372904453      -1.21337197838281      -1.57206318372618
P        -1.88854522210692       4.42613451651806       2.78076181334268
F        -1.83828273559363       2.79314560972491       3.24414772650157
F        -2.40717806765101       4.82687979350283       4.27722907930349
F        -0.30762883401807       4.56474879295452       3.25639746902600
F        -1.91423784264861       5.98580671335682       2.28906320388074
F        -1.34923545323930       3.95958551388427       1.25044172273386
F        -3.43898527764356       4.19091627008889       2.26398417961823
