31
C9H20ClN optimized with ForceField in AMS.
N        -0.41816498561240       0.13828149145332      -0.06633311338246
C        -0.96316957482001      -0.93741379080436      -0.95082067523950
C        -1.47410964824913       0.35825373863339       0.96998912501120
C        -2.42326456534671      -1.14917579534737      -0.59664056043952
C        -2.49632733254944      -0.75542117359965       0.85162463267666
C         0.84268413084480      -0.32409180374521       0.60015765726703
C        -0.21261534539847       1.38668605207978      -0.86941141855966
C         2.02435621239831      -0.58747614190085      -0.36381883920293
C         0.34253710607885       2.57943605945134      -0.06934654677223
C         3.19510997437380      -1.23263055953342       0.37479630825703
H        -0.44954998604660      -1.91386965698776      -0.79205601866893
H        -0.86675660139389      -0.70494475291658      -2.03658480239647
H        -2.02473431207963       1.31482064251334       0.81477938406300
H        -1.07076037391463       0.39349176205698       2.00840653627498
H        -2.74167644403640      -2.20355357684682      -0.74982048271089
H        -3.06333012801060      -0.47232560490059      -1.20518213996024
H        -3.51702509585217      -0.41489523221183       1.13273200212900
H        -2.19707208809533      -1.61415130593778       1.49270743827821
H         0.63682072598373      -1.26139977535270       1.16758618884407
H         1.17527148631932       0.41748992718090       1.36010336995802
H         0.46997818733825       1.19774977513546      -1.72657185772550
H        -1.17808792086464       1.70225842265233      -1.32706280232292
H         1.72245759888317      -1.25842192444858      -1.19423254795840
H         2.38457456791924       0.36548287396320      -0.80267765463968
H        -0.24467697685352       2.77057418942127       0.85130333182131
H         1.40567040898116       2.41838823062017       0.20191537835145
H         0.29164971774353       3.49271908938267      -0.69856125586506
H         3.55158909040584      -0.56514211648633       1.18807795645672
H         2.88923033239089      -2.20833550551508       0.80891589171926
H         4.03279046323933      -1.40837276986999      -0.33264372878725
Cl        2.81226278502333       5.48123614376074      -0.65374960977632
