45
C11H20F6N2O4S2 optimized with ADF in AMS.
N        -0.46947936471831       0.00326347362435      -1.00081673281721
C        -1.04662247310121      -1.39766294616871      -1.11319349697056
C        -1.17702061939169       0.54471767613454       0.22044272380502
C        -2.52443334478251      -1.24859504337945      -0.73952439892218
C        -2.61890410229803       0.06263974357400       0.08520996391255
C         1.02455083258172      -0.02181694430003      -0.77731749207001
C        -0.84845759724454       0.79435423889531      -2.25045381368061
C         1.83040265075251      -0.62082643685067      -1.91606463124991
C        -0.35618339278563       2.22258882370778      -2.27688410212227
C         3.31445565577667      -0.64066541445954      -1.55218540443909
H        -0.50063783791594      -2.00925572234677      -0.37871251168294
H        -0.86435717728666      -1.77796317809906      -2.12644092342336
H        -1.04780628177455       1.63255185198720       0.26758262163413
H        -0.68019375477558       0.08661583505831       1.08942811093027
H        -2.85289118443064      -2.12435181784690      -0.16256844987631
H        -3.15130502184318      -1.20007807555372      -1.63943851587667
H        -3.23741480907489       0.81064564083428      -0.43161501008728
H        -3.06203229729635      -0.09286476859818       1.07909286369767
H         1.17310070679141      -0.60067018958454       0.14933417228783
H         1.32993611250385       1.01651502229302      -0.57653752509831
H        -0.46678262335075       0.22281299902449      -3.10237344656808
H        -1.94353234483170       0.75095083217102      -2.31499895358722
H         1.48401764151671      -1.64257151634491      -2.13497254455990
H         1.68575544486240      -0.04485634833727      -2.84021191920769
H        -0.75344102013833       2.84306801391773      -1.45969541930852
H         0.74095216052870       2.29094740927092      -2.28708583326881
H        -0.70886148840942       2.64556739298952      -3.22923042058477
H         3.70004792839041       0.37546201074403      -1.37415887630008
H         3.50323345383451      -1.24139659302108      -0.64820910164391
H         3.89625661464157      -1.07941973472034      -2.37544453583553
N        -0.95345220542125      -0.98160990093569      -6.55720781835542
S        -0.93537093284126      -2.03187627511916      -5.35875023117232
S        -0.67828061510061       0.59993184639254      -6.37941244533478
C        -2.73021949964647      -2.10045045547119      -4.76194507297878
C         1.23363882520654       0.73625591643652      -6.18234400602522
O        -0.71261200003774      -3.36960287206602      -5.87704601099211
O        -0.19926270638502      -1.60846294015038      -4.15152567295039
O        -1.19900281733144       1.19996950739184      -5.14811388313984
O        -0.93978098220560       1.23673546739141      -7.65709922358581
F        -2.81922479932357      -2.98024381060011      -3.71905058779341
F        -3.56522518941246      -2.51036499209762      -5.73501894056974
F        -3.15729854401836      -0.88984070298632      -4.30839854805111
F         1.70559994807703       1.69194761248509      -7.01123960296697
F         1.86476657628921      -0.42493695892450      -6.45532504919221
F         1.56078224862046       1.10100663563827      -4.90487289177812
