51
C13H24F6N2O4S2 optimized with DFTB in AMS.
N         0.80949340302812       0.13229450288808       0.85372244180355
C         0.00254837606807      -1.14026177174560       0.94376401062780
C         0.90180995613540       0.66903423150433       2.26979073463054
C         2.18846134439190      -0.17180214765324       0.33743421602198
C        -0.77114802874399      -1.04178791789871       2.24830892955081
C         0.23400288173540      -0.36090429386247       3.16979907604648
C         0.08966881722008       1.11658026082244      -0.02043852725019
C         2.22640402175968      -0.70214735757976      -1.09278169004994
C         0.84146602541401       2.42558762913212      -0.21748437997603
C         3.64049744650758      -1.22301001084790      -1.42463810331208
C         4.52625056116650      -0.21049827568054      -2.16069664400695
C         4.88898258971170       1.01770185202638      -1.32835530616706
H        -0.62872488644280      -1.23953036168927       0.06116681200472
H         0.70327607340483      -1.97605314020499       0.98674859929293
H         1.94772518783240       0.82746593617718       2.53556844850028
H         0.37483898050197       1.62277524661005       2.31146911677338
H         2.77891319656637       0.73735759861391       0.43237759607174
H         2.60005735557656      -0.92121023567782       1.01302256307799
H        -1.66891928902814      -0.42983580429223       2.12465992185224
H        -1.06204188908604      -2.03033145787872       2.60419538416324
H         0.97260465936897      -1.08169902647216       3.52755563001157
H        -0.23999883100845       0.11766594716115       4.02683258169563
H        -0.87946165868625       1.30119840473606       0.45043179042299
H        -0.08135817475110       0.63613838133747      -0.98655791752093
H         1.94147202214827       0.07527732876701      -1.80743479249458
H         1.51371729191095      -1.52530564617735      -1.19496384631330
H         1.15722546696214       2.85937949903928       0.72896728798626
H         1.71833817845012       2.28822558951258      -0.84717637900783
H         0.17043808905648       3.12705602065819      -0.71232411585707
H         3.53570901225887      -2.10540126882196      -2.06314264918952
H         4.13903535280350      -1.54014229547699      -0.50390782346366
H         5.44810519740911      -0.72834363833387      -2.44450970400136
H         4.02783887827155       0.10574146249095      -3.08420390434657
H         5.64463349019981       1.60454398864715      -1.85113733705465
H         4.01690420765537       1.65386508068003      -1.17093925057884
H         5.28808320209381       0.72176728278552      -0.35811862903917
N         3.59440990785153       0.63560496998229       3.90095014745302
S         4.22039719587134      -0.58711060486575       3.07813891385082
S         4.52110481747931       1.94666965176546       4.06529914917444
C         5.60257347647523      -1.40451721810079       4.05660630367865
C         4.51933244586214       2.81369380589086       2.39319463826787
O         3.17434438845422      -1.59585944015041       3.02724596884995
O         4.81275577736936      -0.21764460743326       1.80383210637681
O         5.90511040658197       1.67586668676491       4.34483613907928
O         3.79252613051158       2.85373295913495       4.90737695447085
F         5.53515967910026      -2.71052063286824       3.84840373406212
F         5.44649091338113      -1.16759206608688       5.34502352006217
F         6.77739133704107      -0.96756828167045       3.65907652127075
F         4.48293102015332       4.12359255365955       2.56563508203277
F         3.41064738623473       2.46756135092060       1.70879476284674
F         5.56839060646996       2.50604481416083       1.66014207701940
