41
C11H24BF4N optimized with ADF in AMS.
N         0.47852377704767       0.31073165006350      -0.12326944050616
C        -0.67472048687099       0.26836189808822      -1.09951522121194
C         0.11567243748799      -0.50403281099651       1.10904333693776
C         1.73220636927456      -0.26550430880177      -0.78083494853268
C         0.78560700004533       1.74295896993877       0.31293108127495
C        -1.99701934485065       0.71829429305005      -0.49131083861126
C        -1.16450294110272      -0.01895525043971       1.76423032771986
C        -2.33255909320651      -0.06348901514425       0.77972046934414
C         1.77803884184320      -1.77621131128639      -0.92964113327152
C         1.45576973672788       2.59945558141179      -0.74318215330590
C         3.00655502566472      -2.18475370846101      -1.75876300450596
C         4.33841848197551      -1.81098173577635      -1.10709912342928
H        -0.74683044332368      -0.77682514639028      -1.43548116780957
H        -0.39190818899323       0.88724423710171      -1.96270160448698
H         0.98526500451886      -0.46378998391275       1.77979822516305
H        -0.02176166405772      -1.53554802718943       0.75603959603652
H         2.56950869397587       0.07755463809148      -0.15824990564550
H         1.79221354630402       0.21795049698444      -1.76830102987764
H        -0.16975296524868       2.18282114842329       0.61891884256504
H         1.43092488471754       1.64680130250785       1.19947800532269
H        -2.77655900096337       0.57218842772397      -1.25770672489246
H        -1.97496725782909       1.80053996467689      -0.28080419260502
H        -1.03054912758962       0.99040875092242       2.18476642099472
H        -1.35197895538027      -0.68257094008681       2.62423323262660
H        -3.25070090085363       0.33544107333206       1.24003130646302
H        -2.53847799957425      -1.11657607539958       0.51213153290373
H         0.87042628268224      -2.16705712452729      -1.42259111093552
H         1.86791846229725      -2.24010805455145       0.06455046865913
H         1.47336369107268       3.63153673234476      -0.36119641284427
H         2.49848055020272       2.29810393896290      -0.90465863009702
H         0.91735877295165       2.61507084096400      -1.70245497138550
H         2.93531070293562      -1.73907456036986      -2.76855645348057
H         2.96069289282457      -3.27835523252875      -1.90028004767971
H         5.17769870231258      -2.24885287127747      -1.66824945770921
H         4.38239649187604      -2.17139424602750      -0.06843403728678
H         4.49383000517711      -0.72274800867577      -1.06678566145131
B         3.49872925126750       0.31445137512073       2.33988871990173
F         3.15180185877960      -1.01479459495080       1.91844298036010
F         3.77951314529702       1.09002053299345       1.15651219131266
F         4.58741374726456       0.30543647242432       3.20284653930200
F         2.33359519082012       0.88524757906711       2.96306596397404
