30
C8H15BF4N2 optimized with DFTB in AMS.
N        -0.24422764225252      -1.11739906219198       0.11916920064538
N         1.84996362510459      -0.71001767960702       0.41757007982124
C        -1.69420432466119      -0.96011264489450       0.06046891368801
C        -2.12849322253317      -0.24036899424911      -1.22294601256579
C         0.62239778401849      -0.21479143954862       0.57569288778541
C         0.44645828575909      -2.17987502294516      -0.39581305657028
C         3.08917063395656       0.00608972984779       0.70530237895940
C         1.76735111884786      -1.92273884097186      -0.20724689013787
C        -1.87121343008933       1.26204448678534      -1.16785874479704
C         3.44214520718854       0.93537596845192      -0.45146345051212
H        -2.01202241952708      -0.40724493777806       0.95020608713697
H        -2.12657347769369      -1.96349766750451       0.09393011133220
H        -1.59466666187060      -0.67600715192373      -2.07126052105144
H        -3.19871712177805      -0.42785707645586      -1.35277671501946
H         0.37569920144639       0.72902040708010       1.02866425245469
H        -0.05255694884495      -3.00499468881093      -0.87051965181110
H         2.94531763205051       0.56960382475493       1.63260792124103
H         3.87219857796964      -0.74083056757839       0.86078542624065
H         2.64265807398501      -2.47954831070562      -0.48999359095363
H        -0.80235408461278       1.46162256769310      -1.10518706847503
H        -2.37090996943613       1.71234802926158      -0.30759071808830
H        -2.25135436984458       1.72635662836046      -2.07721921570445
H         3.61530156619186       0.35882296144796      -1.35852800095758
H         4.34299542393513       1.49312519501518      -0.19763068792411
H         2.62445212312134       1.62927601390304      -0.63768023346015
B         1.26740717490743      -0.45781033191603      -2.90144531057616
F         1.36365448789997       0.10751551272642      -4.14287930702750
F         2.47392794018151      -1.08861218868958      -2.52429005159724
F         0.22667157730366      -1.41275494847072      -2.84372920226103
F         0.98296461127650       0.54030594061385      -1.91911418441468
