34
C8H15F2N3O4S2 optimized with DFTB in AMS.
H        -0.15510598837630      -2.07674059799332      -3.55973065076413
H        -1.50978066434834      -2.42068187889345      -2.44195257563816
H        -0.05404124292017      -3.44375899872619      -2.41153434682837
C        -0.42854527944654      -2.43316965799226      -2.56562231117963
H         2.39234438686603      -0.51929116026828       0.55765006928149
H         2.11509455203138      -2.43939326340841      -1.42071643039961
H        -1.50151743559180      -0.31471317635832      -1.04558122855297
N         0.16336858201779      -1.56842677300664      -1.55796617349861
C        -0.47482678858258      -0.60340386617019      -0.90065973069435
N         0.37711255736125      -0.07778110333640      -0.02143272397557
C         1.56765609250397      -0.74783740907108      -0.09362472283381
C         1.43265924522528      -1.68829081351861      -1.06475141811144
C         0.04907570512234       0.95058044995341       0.96194002655334
H         0.93599302865330       1.57424647466227       1.10454255265115
H        -0.75785153612149       1.56425189036113       0.55192431283535
C        -0.37351707064302       0.28381856457703       2.27323957910910
H         0.44110211085668      -0.35354936360213       2.62403845389958
H        -1.23877667694094      -0.35685666945642       2.08157499046661
C        -0.71286556859047       1.31848311276660       3.34761480532037
H         0.17736380375604       1.91611707278211       3.57231261531106
H        -1.48922252501187       1.99751123027065       2.97753903109148
C        -1.20009443759613       0.61902607656805       4.61588707311566
H        -0.46797531604693      -0.11688310091211       4.94872857624468
H        -2.14288898456114       0.10556423986169       4.42617612211299
H        -1.35137695179883       1.34960550409090       5.41062418143426
N        -1.03653258119304      -2.74798801719201       2.02358896814712
S         0.25290624191058      -3.19263077050677       2.84884657843378
S        -1.28383028804399      -3.46898813401645       0.63797185967990
F         1.45993496587037      -2.47845479181564       1.97724746838236
F        -2.13608086696045      -4.78145541119940       1.01721442593292
O         0.25216290709123      -2.45313495128987       4.06762440840145
O         0.59766477144286      -4.57168283003671       2.85416120040361
O        -0.13923548681768      -3.97220547330312      -0.06726595949607
O        -2.20865023681739      -2.65712879072003      -0.10793622823558
