32
C8H15F6N2P optimized with DFTB in AMS.
N         0.21671606825660      -0.75320412968824       0.69049391235742
N         2.19813382040191      -0.35716463270355       1.43481527476828
C        -1.09984007216244      -0.56467413765448       0.08913522104763
C        -1.02391038775878      -0.61698659216270      -1.44234703776187
C         1.09927990013291       0.21197406755100       0.94864588346149
C         0.78341987909592      -1.96538334291794       0.97457206301543
C         3.46368372365003       0.29792219346902       1.76970713045344
C         2.03245414475317      -1.71453917795951       1.44436755388780
C        -0.41136529512344       0.64525584576224      -2.04027915516112
C         3.37860749990253       1.81043629848196       1.66746307521733
H        -1.49174256390354       0.39856355443407       0.42893352788702
H        -1.74500947660488      -1.36289425514766       0.46569435511639
H        -0.43695779185918      -1.48897489237373      -1.73960018826832
H        -2.04499258151369      -0.74621449327538      -1.81355218812558
H         0.93534501751615       1.26242609264833       0.79272072058300
H         0.26298971506440      -2.89254502696279       0.81252473710940
H         3.73655437726590      -0.01365196225625       2.78316643962123
H         4.20954365072551      -0.08723107296781       1.06723327922354
H         2.81830566496358      -2.37951583036775       1.75470431662241
H         0.61629339710417       0.76815057569356      -1.70452526357741
H        -0.98761752634725       1.52721763067150      -1.75549497680856
H        -0.40464485809400       0.56403774169626      -3.12631115309022
H         3.15993508392153       2.10724218810259       0.64268808708793
H         4.34331025827831       2.22898837094033       1.95107830682486
H         2.61352508568475       2.21150122242072       2.33289106591773
P         3.27816710838985      -0.76523161565817      -1.96863814145210
F         2.56655308850256      -0.09608718531333      -3.27755230214094
F         3.71606855375404      -2.08376641461117      -2.81276370160416
F         4.69039499624149      -0.01908479053871      -2.29003297885885
F         3.93961627303651      -1.42162523527853      -0.57838741781750
F         2.80132112931060       0.57381321366256      -1.05227878222497
F         1.82978178161478      -1.49552175099639      -1.56138476681073
