26
C8H14N2O2 optimized with ADF in AMS.
N        -0.68191459854532       0.16583126570406      -0.38721372344175
N         1.47203136472502      -0.02481740119288      -0.19447770401446
C        -2.10663692893451      -0.19221156450320      -0.50470166665598
C         0.33199347748533      -0.71009923016107      -0.38568266554541
C        -0.20430137136163       1.44746928485055      -0.18513436497404
C         1.15455871693008       1.31651792457163      -0.06832163594279
C        -2.69734303036964      -0.51852072826301       0.85664381697596
C         2.80982562680323      -0.59289628752732      -0.14462224994506
H        -2.61969243034836       0.71711383849744      -0.88045266795188
H        -2.17107809919846      -1.03211103366818      -1.21407611569667
H         0.25420463024779      -1.78181636891435      -0.51885411912079
H        -0.89251608419128       2.39048100352147      -0.15876862547127
H         1.92188130330239       2.06518020358474       0.09032913369220
H        -2.14570112519903      -1.31911559057403       1.37560125167937
H        -3.74171408459150      -0.83511334172818       0.72064557580519
H        -2.70633328058004       0.39550352610589       1.46791462937832
H         2.74178141930881      -1.68396461722703      -0.22081600598503
H         3.40780150307236      -0.20460628151786      -0.97975568288990
H         3.28233937965271      -0.32658124675514       0.80983321694919
C        -3.85505015541219       4.70417423740777       0.10001944427867
C        -2.94982661519041       3.48596173517026      -0.09381044916429
O        -3.50379058439211       2.36440028588864      -0.26259937976779
O        -1.69315271907705       3.72580851311508      -0.08799964830071
H        -4.01821816475610       5.17833717697647      -0.88092253914757
H        -4.83235730865060       4.40534372446993       0.50229175110342
H        -3.37576777172950       5.44542409026832       0.75439465835307
