40
C12H22F3NO2 optimized with ForceField in AMS.
N        -0.11112085537069       0.02264855541049      -0.06300516494855
C        -1.01684986725815       0.52823546630794      -1.14607474837130
C        -0.63401122583249      -1.29511969213149       0.42726052166979
C         1.23273512277502      -0.20334925807382      -0.69863428761504
C        -2.49287144583015       0.63690255315380      -0.72951686830378
C        -2.11119739404062      -1.26116387129838       0.86666954665911
C        -0.02271367457616       0.98896963618705       1.08711819504139
C        -3.00771038901992      -0.71262660012927      -0.23942845238053
C         2.36553522496891      -0.64497205032710       0.25942430912778
C         0.59212643090515       2.36202520347611       0.75926657171940
C         3.66391787977583      -0.87642821090494      -0.50884014624880
H        -0.98122419674272      -0.15760164149009      -2.02510864031446
H        -0.68071717260003       1.51327946457851      -1.53313935937343
H        -0.04767083588567      -1.65844763239402       1.29875176030910
H        -0.54117045850335      -2.07207728316351      -0.36693372460417
H         1.56814436286493       0.71133027249378      -1.23685722694920
H         1.14757834382415      -0.98327402340196      -1.48868343165262
H        -3.09374219003540       0.95015430262050      -1.61055641057035
H        -2.63713197834363       1.41496133321329       0.04808464764278
H        -2.23555020511148      -0.66138617509647       1.79218097159329
H        -2.43710543725462      -2.29570566956756       1.11018624843904
H        -1.01977221303676       1.18855747426614       1.52457809891315
H         0.55731495137642       0.54574647024794       1.92510154279879
H        -4.04415748802481      -0.59828294787266       0.14426786023183
H        -3.03149523983858      -1.43138284426979      -1.08815639050100
H         2.56669846713309       0.13229174330249       1.02404500943754
H         2.10388243412029      -1.59253662702419       0.77138659455416
H         0.63960782495974       2.96277168377020       1.69209476154558
H         1.62792136748825       2.27705632678284       0.37651694435410
H        -0.03294496151346       2.92697167722778       0.04022123082712
H         4.46507901408585      -1.18076872631410       0.19733652461476
H         3.52909037687967      -1.68281604708557      -1.25998878606241
H         3.97942258685540       0.05570971354250      -1.02417720959230
C         1.35982057929345      -1.26314996951407      -4.32868076405935
O         2.27464505379352      -0.49233504810572      -4.08366451125226
O         0.29778339185166      -0.82613866420250      -4.74244105818698
C         1.53215107996040      -2.73992383807271      -4.12484905443674
F         0.54500837225246      -3.20992650316925      -3.27798821762983
F         2.76934618271315      -3.01483726169769      -3.56868845423054
F         1.43271019554134      -3.38793734887454      -5.34216991969509
