25
C7H16ClN optimized with ADF in AMS.
N         0.09977079464836       0.19326634882338       0.04019088957496
C        -0.68128652267643      -1.09723941883981      -0.15795818114527
C        -0.63168005603248       0.84562785444907       1.18997197306854
C        -2.13578807588705      -0.67006172866349      -0.00434072240205
C        -2.11487472949705       0.59200558912962       0.90072602673774
C         1.54283988089282      -0.07892142593313       0.39337508627286
C         0.01664775717806       1.06262650877676      -1.18832793258092
C         2.32380023887111      -0.76147243723567      -0.71080608841848
H        -0.35572606944577      -1.76646083667746       0.65417452136446
H        -0.43196055625273      -1.50310010297925      -1.17164546021855
H        -0.34315831638916       1.90427040481711       1.25273063456746
H        -0.30697382754899       0.32250214464350       2.10277641612887
H        -2.73094809978975      -1.48619023435098       0.42922088851863
H        -2.55955403321652      -0.44645735915963      -0.99517896490481
H        -2.57087240500737       1.45325349171935       0.38937015087927
H        -2.66339473095006       0.44722899909893       1.84218194617478
H         1.97937430377690       0.89866959101917       0.65748301209156
H         1.51222423051825      -0.69846120069225       1.30396809871782
H         0.18136146664879       0.41116032854223      -2.08221039219571
H        -0.98755082613871       1.49949788982646      -1.23628770730080
H         0.76545805459220       1.85943461409104      -1.08614970639470
H         3.33943275715496      -0.96293386164999      -0.33770647321032
H         1.85750121178642      -1.70405169781336      -1.02958990194162
H         2.39551346260742      -0.14337582873682      -1.61506261133859
Cl        0.11911486945676      -1.44833271420480      -3.26381882264512
