39
C11H19F3N2O3S optimized with DFTB in AMS.
N         2.26046129550456       0.45843060386803       1.25083970822149
N         2.68613361927090       2.49677778697613       1.78989127663615
C         0.59766637841115      -1.18748379345882       0.49263436501093
C        -0.33624898016431      -0.14565690689680      -0.13061053201765
C         2.06013800433373      -0.74292043637418       0.45031402614493
C        -1.79328218587838      -0.61711900718499      -0.10001324110423
C        -2.72775942984018       0.43073969052701      -0.71300681332042
C         2.43003299409171       1.68652167759801       0.76627791502924
C         2.43283051154408       0.48221534168689       2.61145400948477
C        -4.18208837152959      -0.03586063803308      -0.68430169405962
C         2.70994194463260       1.76682876606924       2.94758276492583
C         3.15701880821617       3.86557214385202       1.65233042840801
H         0.30657697973313      -1.37356064707354       1.53101009472156
H         0.51741095003823      -2.13061189926627      -0.05505027480287
H        -0.03226900449890       0.04139837443334      -1.16617161236965
H        -0.24656905375340       0.79797195572764       0.41912562090552
H         2.37684164471265      -0.51737402723133      -0.57086674915389
H         2.71162591338208      -1.52018413960520       0.85763003656959
H        -1.88278987549296      -1.55705467724830      -0.65488617308315
H        -2.09033063852166      -0.81151754327562       0.93630549173253
H        -2.63509916360144       1.37008250694540      -0.15703357373259
H        -2.42734121064237       0.62419422330746      -1.74827854401063
H         2.35811786409964       1.97220493207036      -0.26745264821942
H         2.37602451905678      -0.40978214609747       3.20920657953620
H         2.94970128337724       2.21258931506650       3.89621656474931
H        -4.50608268486705      -0.21499255743054       0.34181829918188
H        -4.82684862346195       0.72483934176747      -1.12457930125540
H        -4.29793048123045      -0.96047037672995      -1.25126571236227
H         3.73490693555471       3.93050255781207       0.73070992045714
H         2.31345618607750       4.55616116494554       1.61995019408540
H         3.80120936337260       4.08970646462993       2.49987034609870
S         5.73737024153880       1.56941310868648       0.79610298142352
O         5.39891015398345       2.01825829183840       2.13631618591463
O         7.07754098142165       1.84079934844998       0.35810973570143
O         4.69195080949352       1.85429512383756      -0.18855084312535
C         5.64453796228428      -0.29587493182256       0.93109399629894
F         5.04566045746805      -0.82181552047589      -0.14470600537980
F         4.89690564788933      -0.65669000827394       1.98850425776500
F         6.83100280419416      -0.86235195631693       1.06193420309421
