40
C12H8F18NP optimized with ADF in AMS.
N        -1.93763451495619      -0.73818603424757      -0.09614268132461
C        -2.71196990121171       0.34779056082513       0.10713836518146
C        -0.68780832034355      -0.80684749128885       0.41519682253053
C        -2.47583707478416      -1.91719812375996      -0.79968318169566
C        -2.23183750871686       1.42400476973833       0.82936327092725
C        -0.17017541141277       0.23951222898664       1.14774950758743
C        -0.95087792716176       1.37319749192790       1.36121867450062
H        -3.72131880917248       0.30681767828328      -0.29233429229306
H        -0.14866005585545      -1.73510462354976       0.23736160017460
H        -2.59605786371074      -2.72471731097463      -0.06720845879055
H        -3.45634117169019      -1.66924286870202      -1.21506643292227
H        -1.77764183999843      -2.19777476693548      -1.59822766388635
H        -2.88801196153376       2.27539967372370       1.00162195133156
H         0.83112249682529       0.14823831917607       1.56732642661122
H        -0.56814174080844       2.20391818605787       1.95548654884311
P        -4.84179229866943      -1.76007760008129       2.93352816645192
F        -6.25851401710675      -0.92413732869016       2.71641447970273
F        -4.37978520272843      -1.36763348369343       1.33843884433841
F        -5.19724474593236      -2.18912644623434       4.49330496345887
C        -4.16628707847552       0.01275013716843       3.57579672191914
C        -5.86820306003109      -3.35915578439240       2.34287414589316
C        -3.07277251594533      -2.72752939175530       3.00581011914830
C        -4.74303367646434       0.55485858198423       4.92646811758333
C        -6.12752816155796      -3.57895679891753       0.82343925533862
C        -2.59315597795099      -3.33487096028831       4.35102380786472
F        -4.50382341248441       0.97027547483681       2.62608304174953
F        -2.79727601314085       0.12834834591476       3.74397244215316
F        -7.12341730270122      -3.27499961632790       2.90014100522836
F        -5.33185827326346      -4.53675350073446       2.81426062481821
F        -2.03300908471137      -1.89815691704091       2.59491557605076
F        -3.04729336843221      -3.76043491926998       2.08426347288927
F        -4.35590187778294       1.86281482559676       5.06697917497389
F        -4.23624520697303      -0.12646897489381       5.97808953220262
F        -6.08648706546561       0.52108721699066       4.98255813801978
F        -6.92306507143866      -4.66668493759518       0.64502655647869
F        -6.74619149933069      -2.51310767372866       0.26252054799887
F        -4.97690903751184      -3.80921717263868       0.12682402092212
F        -1.36098443038858      -3.90856881862756       4.18018911700028
F        -3.42851977886869      -4.28889525288999       4.80192360565814
F        -2.47023622721307      -2.37052824385240       5.29096358428183
