70
C20H30F18NP optimized with DFTB in AMS.
N         2.95305582499363       0.31335353842313       0.43676783167262
C         4.03771513201892       0.23916337057690       1.47253307444450
C         3.27797982359726       1.58911715870620      -0.28604001463642
C         3.01393313514855      -0.83765816490443      -0.52107665495514
C         1.62648828176102       0.40721325702743       1.13142633401702
C         4.24493025157385       1.67432805108418       1.94459664329380
C         3.75216377159075       2.55944469974871       0.79050229873235
C         2.85340034054014      -2.20580329970509       0.13340567356932
C         0.41092762679685       0.40684794215176       0.20587822483174
C         2.99237038512427      -3.29075981685884      -0.94227224862265
C        -0.84921479458688       0.72234388570411       1.02124222153660
C         2.89019671797399      -4.69198581933892      -0.33317613268536
C        -2.09690388787793       0.70446374180952       0.13231460834874
C         2.95770767246397      -5.76798719168724      -1.41506232470623
C        -3.35509060248862       1.01963865140521       0.93861587864239
H         4.93519045692635      -0.13966124357270       0.98403605884675
H         3.74161233193589      -0.44145584485825       2.27051851847353
H         2.40638129766743       1.93591698596044      -0.83955746789771
H         4.08685206193913       1.36794269263065      -0.98431304107006
H         3.98594744428849      -0.78537680650159      -1.00898406921439
H         2.24342020337474      -0.67386958488650      -1.27744201692029
H         1.64280645196426       1.32808149040921       1.71849218212351
H         1.56228896700654      -0.43621548772851       1.82311510036457
H         5.30244825870418       1.83850403519934       2.15241782694671
H         3.68180666710836       1.87415132809412       2.85897814145517
H         2.94134785143236       3.21431304238708       1.11682029632351
H         4.55715330497443       3.17819703276928       0.39368273813049
H         1.87685465686470      -2.29540089752473       0.61803675766262
H         3.62682426336680      -2.34848721538304       0.89248349142150
H         0.29357599939826      -0.57155093031643      -0.26702277790425
H         0.52524053222210       1.15403029656881      -0.58369975138670
H         3.95865576833689      -3.17897385955057      -1.44425669968656
H         2.20621157606324      -3.15670030915810      -1.69319190799579
H        -0.74403909255586       1.70789843170193       1.48702776181756
H        -0.95775604737173      -0.01684619790534       1.82196933845065
H         1.94614620732260      -4.78397807239734       0.21531105899943
H         3.70790270552848      -4.83700829659379       0.38012456335321
H        -2.19729078389455      -0.28224639481749      -0.33182585350163
H        -1.98157644493777       1.44166939497487      -0.66909962869303
H         2.90674777267565      -6.75697404552619      -0.95984432030541
H         2.12491596029232      -5.66177962684154      -2.11160438107241
H         3.89033421096659      -5.68921592595651      -1.97428716223437
H        -4.22801604008832       1.00075795157498       0.28652486609960
H        -3.49621990681498       0.28325029848976       1.73068509750195
H        -3.28079779079956       2.00866201211759       1.39229396443615
P         7.68849127922850       0.98308133895767      -0.53785993160797
F         6.26295530267798       1.87650056447420      -0.78064241167409
F         8.25948297878998       1.35614559872741      -2.05616323454389
F         7.06467645845320       0.58845001611427       1.00350078334937
C         8.41180819275390       2.69724903044874       0.08871612910379
C         6.66703873165416      -0.53754812724977      -1.37467764699430
C         9.22644639901895      -0.22837906382820      -0.13761469890125
C         7.91460844570844       3.31815704105045       1.42119665800335
C         7.26593057135922      -1.54783970341304      -2.39909845772355
C        10.37270694490568       0.03722034605484       0.88104359751375
F         8.13992172235201       3.62163545700304      -0.84920297231748
F         9.75144567495964       2.60684915767510       0.17048233285918
F         5.63305505919516       0.00834622689572      -2.06892260756069
F         6.08103743160356      -1.30897072863677      -0.42230274620018
F         9.81744908159153      -0.55751967400727      -1.30005987880251
F         8.61048768533607      -1.34276355479635       0.32158695499430
F         8.56255819715318       4.45295712764401       1.67617665879962
F         8.07372875312435       2.51393803729586       2.46575322681540
F         6.60845556766646       3.61465226550645       1.33653070588126
F         6.23864802201521      -2.21907915413614      -2.95053992531151
F         7.91806970639650      -0.93900150025483      -3.37845165948618
F         8.06278419634142      -2.45073988809910      -1.84833162965984
F        11.37716239692141       0.70447813756750       0.32873300054781
F        10.85632120490157      -1.12163745990646       1.33052215595025
F         9.92912051446526       0.72151639581062       1.93547207815772
