47
C13H13F18N2P optimized with ForceField in AMS.
N         1.10729824643669       0.36362942518820      -0.37146922723846
N        -1.11625519836023       0.36485325840722      -0.38295411116970
C        -0.00228975904317      -0.22068467427528      -0.86452027380436
C         2.49171148567069      -0.01883521859197      -0.63768966844644
C        -2.49815843911021      -0.02048201169416      -0.65807981311737
C         0.68179115166936       1.35444686269088       0.43827025067856
C        -0.69804871357450       1.35593071272729       0.43035962326549
C         3.10875953702421      -0.67075224816835       0.59478043491032
C        -3.12143566957753      -0.67313089879456       0.57099162797552
H         0.00069750845690      -1.06803679095474      -1.53903889113520
H         2.53144892307340      -0.73982221052142      -1.48334919453953
H         3.07836291521235       0.88086943463232      -0.92282064122968
H        -3.08490982616514       0.87775909096175      -0.94739509303511
H        -2.53112345255936      -0.74187921462830      -1.50363917338182
H         1.32551188747309       2.01872512368259       0.99964498043663
H        -1.34704191343908       2.02356145549493       0.98225529249066
H         3.11409321690373       0.04184584017142       1.44662064123355
H         4.15416391401583      -0.97298397629895       0.37421599543866
H         2.52665063498027      -1.57380220266313       0.87770346420159
H        -2.54008721681111      -1.57570595257660       0.85689834826277
H        -4.16550835694442      -0.97594852821162       0.34514400186223
H        -3.13155820945156       0.03914685401409       1.42306539600340
P         1.55604795463959       7.24533446553055       1.45584444440217
F         1.77219389010335       7.52771341421232       3.14040348991854
F         0.68137740092067       5.79063329219402       1.16015553579346
F         2.16939334711691       8.85155621482504       1.49441806701233
C        -0.24622271457218       7.73093460644053       1.98341921883603
C         3.03502838335050       6.12562592497883       2.00865364492080
C         1.93107169243162       7.57101109883623      -0.41246721743691
C        -0.45427856174354       9.12154584270660       2.64294166261294
C         3.61497398422448       5.15616154120761       0.95733487014562
C         0.96468963785053       8.50252236042878      -1.17069171459351
F        -0.71657949064667       6.79636046721179       2.89792463494337
F        -1.08042431146070       7.66688614231009       0.88567963942324
F         2.63943701404875       5.32775837659128       3.07813058903073
F         4.07893241601309       6.93521886246569       2.43423732119430
F         1.89779502188801       6.36451249461504      -1.08825848270945
F         3.21314775154093       8.08457295558554      -0.55320772040059
F        -1.81234632092748       9.34390236387677       2.78941583034935
F         0.05726004010264      10.14928172663239       1.88051134907387
F         0.11270324825555       9.17413197603388       3.90387041842916
F         4.54140573252935       4.33419120801252       1.57531592160045
F         2.63358176224345       4.34892789709834       0.41520527943090
F         4.27363417513276       5.83293664932180      -0.04888039403371
F        -0.23123550119524       7.86041087541487      -1.43106977049734
F         1.52832144958821       8.83713764814362      -2.38926819196418
F         0.72392141978519       9.67219784783427      -0.48493617894327
