31
C11H18ClN optimized with ADF in AMS.
N         2.47177801048867      -0.04204872036776      -0.61764347436555
C        -1.36499228470273      -0.03737400359718      -0.74203247349282
C         0.03856951100613      -0.03553297741261      -0.14502189804439
C        -2.45969860701581      -0.02771438131263       0.32407107281825
C         1.13375945740354      -0.04438952121362      -1.20873296224260
C        -3.86932031145008      -0.02912834775892      -0.26282645213209
C        -4.95483854775354      -0.01926680182127       0.80997221213408
C         3.02429398423210      -1.22150113070932      -0.17720640193689
C         3.02227644087432       1.14069579332477      -0.18347564686165
C         4.16268797937291      -1.25157239089633       0.55791879209128
C         4.16033997091257       1.17666745027216       0.55188061138623
C         4.91754600428902      -0.03610216926207       0.80939996559928
H        -1.49226892200939      -0.92755214347181      -1.38678696516152
H        -1.48907565266414       0.84397906888283      -1.39937319309148
H         0.17383344491076       0.85375796842458       0.49707024111933
H         0.17139404323057      -0.91621669996604       0.50928287042334
H        -2.33690432655783      -0.90859936645139       0.98256784924508
H        -2.33350920206602       0.86198863722839       0.97000054505686
H         1.05349565005157       0.83724111072350      -1.86547998055643
H         1.05136518909161      -0.93491047220601      -1.85302096916455
H        -3.98869960283690       0.85144860940203      -0.92074210328491
H        -3.99220534220041      -0.91855775507198      -0.90811174689364
H        -4.86951079476854       0.87474102318609       1.44841246891461
H        -5.96073280520753      -0.02052309332869       0.36327754511201
H        -4.87296975247926      -0.90436969979443       1.46115045457572
H         2.47874430702596      -2.12399760810948      -0.44920881068823
H         2.47531266506832       2.04077515031172      -0.46054050377870
H         4.56029403105197      -2.21065943688923       0.88721339267102
H         4.55586032598889       2.13818559025817       0.87653043678455
H         5.53434344986652      -0.03337325357109       1.71120254986099
Cl        6.51725167134678      -0.03760069000237      -0.50617797539718
