55
C15H29F2N3O4S2 optimized with ForceField in AMS.
N         3.08129832706065       0.92488373442749       0.00133367843236
N         2.92956920687690      -1.28869783533441       0.16490142965673
C         1.47473851237780       2.78299800965018      -0.25160064193926
C         2.84062700073098       2.33701287421797       0.29300201442608
C         1.02504142872321      -2.63033559211957       0.99650291975970
C         2.52464504063066      -2.60360237788827       0.66028783686939
C         0.31228628315449       2.10471191452205       0.49023154606926
C         0.15167727378389      -2.30740004426326      -0.22667805293590
C        -1.04463527738891       2.54858896559159      -0.06620083756569
C        -1.33703648475761      -2.29557352070777       0.14023046279976
C         2.82982596897730      -0.11513742291577       0.82019065469016
C         3.36624914949756       0.39085926743298      -1.20381337349254
C         3.28033079795788      -0.98214946739332      -1.10035977558272
C        -2.19061209166439       1.87327992947981       0.69815372064640
C        -2.18755967238023      -1.80604743987112      -1.03941140060556
C        -3.54255262180269       2.18608498559622       0.06582501435837
C        -3.66703724182079      -1.74569726162273      -0.67127333508094
H         1.38972524848389       3.88523609810846      -0.13306072156293
H         1.41703244589141       2.55100894818070      -1.33772111198980
H         0.81916995387565      -1.89827914516900       1.80771382630222
H         0.76430925094637      -3.64132438484639       1.37842041182629
H         3.64167752483183       2.94849217078358      -0.17555816560824
H         2.88484350602462       2.51339508836170       1.39033626977617
H         3.11131758709493      -2.84509060163454       1.57242882044506
H         2.74479046942746      -3.38278683314344      -0.10215170840749
H         0.36904257376119       2.35559127331115       1.57238886460270
H         0.39124620908568       1.00263621468355       0.37922927942813
H         0.33119906103035      -3.06465602757059      -1.02132725294760
H         0.42810465271053      -1.30835473066184      -0.62722221965128
H        -1.14259524196517       3.65290850077273       0.02559989530904
H        -1.10336712506888       2.27466319849910      -1.14307495003804
H        -1.49714468877660      -1.62158817776518       1.01038238311054
H        -1.65294344761199      -3.32271998417097       0.42800393219597
H         2.49272293399745      -0.01534493799368       1.84458443411773
H         3.55906060213093       0.95845051589663      -2.10477831000301
H         3.39183787776387      -1.69741245711489      -1.90490190572787
H        -2.04657187674000       0.77241247156250       0.69905834123146
H        -2.19430216666568       2.22460947347561       1.75305379682293
H        -2.05862999067173      -2.49157774944456      -1.90526059532439
H        -1.85686882056394      -0.78887140573058      -1.34477592623158
H        -3.72973048514271       3.28093489496850       0.07630893824539
H        -3.57307714145485       1.81514346929249      -0.98108491466589
H        -4.34582469391216       1.68093345095380       0.64292551088276
H        -4.24740010704212      -1.36068753048740      -1.53632644902539
H        -3.82480030598535      -1.06375591935429       0.19132958512836
H        -4.04219658982416      -2.75866941601477      -0.41253415846833
N         5.70114115414271      -5.35516136038424      -1.13418868621835
S         5.23305257639771      -6.33416923994558       0.09070648910812
S         6.61352271679419      -4.02498273346489      -0.86071977146419
F         3.98937212149911      -5.60486115269394       0.93997387835494
F         8.12936681608901      -4.49096915671052      -0.32375724057377
O         4.74922751006398      -7.64174405996397      -0.46869590817152
O         6.38360926646254      -6.57703429061346       1.02696062144653
O         5.96660387751152      -3.16980947990056       0.19226372763922
O         6.75426544615170      -3.24078055857326      -2.13428965929947
