56
C14H28F6N2O4S2 optimized with ADF in AMS.
N        -0.02533051592521       0.30194523837455       0.28232116302199
C        -0.77705495189214       1.45985423611686       0.94675825688546
C        -0.98211913508538      -0.61662395346669      -0.44858238655557
C         0.69610186015226      -0.50432886968193       1.35846272366848
C         0.96949741144847       0.88286200342487      -0.70662902150973
C        -1.98615694569918       1.08656953788993       1.78673131150412
C        -1.86260967070461       0.03303363054372      -1.50489771478486
C         1.60692823186823      -1.62075130944137       0.87895298532485
C         2.08091464375072       1.72478429613155      -0.10054378203092
C        -2.50554645457269       2.34978654355512       2.48034755807862
C        -2.86154149739174      -0.99703540189730      -2.03378339511827
C         2.28086449721384      -2.24701703315482       2.10505693359077
C         2.95762484198443       2.29192441522917      -1.21730975887515
H        -1.06256198769965       2.14065625170492       0.13056464286872
H        -0.04627280584336       1.95886250253126       1.59303526664423
H        -1.60187262392215      -1.08334743934969       0.33125502920212
H        -0.36537175508610      -1.40414545985036      -0.90441136601073
H        -0.09143759507424      -0.90115618143155       2.01345175963460
H         1.25227999556923       0.21942181438646       1.96289557217915
H         0.37961372003026       1.48979497235690      -1.40841900011243
H         1.38691332963617       0.03153119281685      -1.26558180836390
H        -2.78355039697745       0.64547952186587       1.16522440033653
H        -1.70533007109878       0.35914225902523       2.56333050191089
H        -2.41309766234193       0.88725070081181      -1.08077207942261
H        -1.25358454139695       0.41383188995132      -2.34033454941305
H         1.04900407037744      -2.39732708137625       0.32930569780894
H         2.38603108281404      -1.23101386033768       0.20301993027463
H         1.66571590667538       2.55424892937192       0.49070435989053
H         2.69962741427157       1.12536619597149       0.58525801910214
H        -3.42158704313185       2.12258996958712       3.04382006695864
H        -1.76137118949695       2.73202166027337       3.19453264458859
H        -2.74215925249449       3.14004175322581       1.74945791615095
H        -3.50178742786801      -0.55266947222970      -2.80901011286090
H        -2.34652026667327      -1.86414056360391      -2.47604558880008
H        -3.51338901208532      -1.36488169962079      -1.22618157302897
H         2.97603734184677      -3.04184863750214       1.79829966979152
H         2.83817630512480      -1.49004953307147       2.67781175037466
H         1.53454044190802      -2.68884457350276       2.78266026659029
H         3.76631311709996       2.90167018080656      -0.79041015979955
H         3.41814263633010       1.49104424141920      -1.81674679689048
H         2.37469065650798       2.93399715714124      -1.89675520555035
N         1.28162322144256       1.82403584550425       6.04613765992263
S         1.56126940547429       1.63503319901615       4.49707400776367
S        -0.15143461960239       2.41199553361231       6.54631443125423
C         2.07837436645283       3.33703576854791       3.79361704641131
C        -1.35664756129894       0.91629607367599       6.47767241375715
O         2.76286787535202       0.82778471454953       4.30503514048384
O         0.37883105277815       1.30241341485568       3.68459965223020
O        -0.75285372128562       3.39386426817621       5.64691962873385
O        -0.03165278849032       2.67526871384723       7.96926193425962
F         3.01438186032210       3.14808663924364       2.81528139171495
F         2.60688473154120       4.13640628948015       4.73771721008366
F         1.02568263938908       3.97417614016398       3.21779599552676
F        -2.20341588444378       0.98644346610737       7.53188412665039
F        -0.69971580046752      -0.26787147251912       6.53494821544538
F        -2.10716643321191       0.92833090154403       5.34500877680847
