48
C12H22F6N2O4S2 optimized with ForceField in AMS.
N        -0.51413384952161       0.00962785352488      -0.00005352557273
C        -1.43488139613490      -0.55459131358022      -1.03485500670463
C        -1.41542629434740       0.60298022629331       1.03558455755608
C        -2.83847691811163      -0.06179356744621      -0.74173605651720
C        -2.83389520448647       0.15213945167106       0.74498499561418
C         0.33495655301714       1.07725625095519      -0.62348156239716
C         0.30061405145196      -1.08531431997822       0.62166907860140
C         1.34773447223254       1.74159140180385       0.33893129220328
C         1.28855154453741      -1.78207888960308      -0.34396330051806
C         2.06562115890690       2.90233833817697      -0.34561811249273
C         1.96360074780814      -2.97179558462457       0.33403768354793
H        -1.14987360552595      -0.28040773310261      -2.07667781568690
H        -1.47334129788745      -1.66756647339089      -1.00336438225775
H        -1.13694875375426       0.32180625485748       2.07735997635339
H        -1.41987913618998       1.71657788293699       1.00246616145865
H        -3.01780375376960       0.90530377492379      -1.26242867409587
H        -3.61026714100828      -0.80144399213631      -1.04801000260779
H        -3.04118933515486      -0.80862394746938       1.26718511270617
H        -3.58296617994812       0.91497284768456       1.05041248116466
H         0.89670319910676       0.67135754889095      -1.49362184955934
H        -0.32159428749348       1.87413466182108      -1.04510527315752
H         0.87723930479012      -0.69848221764155       1.49068667799785
H        -0.38108316044375      -1.86003890107045       1.04471330677279
H         0.83926485516006       2.13036241300503       1.24548917505022
H         2.11899945862043       1.01045304699463       0.65693790243130
H         2.08558853309210      -1.07773687247045      -0.65897049737813
H         0.76669906614910      -2.14787511472645      -1.25244637829436
H         2.62552200071291       2.53754089664850      -1.23322354901592
H         1.33515719610904       3.67581286996090      -0.66580943116296
H         2.78548060889033       3.36610798708800       0.36154287687823
H         2.53645554699460      -2.63263119482004       1.22345758091572
H         1.20540064533964      -3.72003835369889       0.64968240293390
H         2.66588444181092      -3.45737156673408      -0.37620138121971
N        -4.83409264157132      -1.09680072477415       6.02990482171330
S        -5.10780996513511       0.51954684199149       5.99101488140354
S        -3.34144110480591      -1.74539847146985       6.23351743178415
C        -5.01554067184856       1.08527163387869       4.30532196224747
C        -3.13663775849683      -2.20023211865147       7.94265109020468
O        -6.48483417946381       0.80203038148041       6.52232456889061
O        -4.08998445400217       1.25001342388655       6.82234609559544
O        -2.27261911750053      -0.76299710307494       5.84203392649034
O        -3.21977137604523      -2.98152613610180       5.38774858434493
F        -5.28105585608906       2.44028556435480       4.25275054204099
F        -5.94482794790592       0.40683855387264       3.53990909866042
F        -3.74984987937890       0.84698277360030       3.80719823976013
F        -1.87749386432404      -2.73574693024271       8.13579101466467
F        -4.09067034343919      -3.13871912099507       8.28707473316079
F        -3.28639287494580      -1.08167535319865       8.73937059579155
