43
C13H24F3NO2 optimized with ForceField in AMS.
N        -0.55856265358234       0.09564098532889      -0.10021325742210
C        -1.55975779297252       0.54544837248212      -1.12174039348644
C        -0.89827295374763      -1.30099312405045       0.32831150615107
C         0.77618877416972       0.07497278254923      -0.79305546482704
C        -0.54343080424589       0.99902807969199       1.10317503728267
C        -3.02098798890982       0.44908910716112      -0.65459306268772
C        -2.35324601547459      -1.47770195812156       0.80874399762970
C        -3.35157812939968      -0.97779190116101      -0.23089065264267
C         1.99122962380160      -0.29852948092720       0.09171842885197
C        -0.12392888147826       2.45653835616138       0.83915971527976
C         3.27768846937052      -0.33315988420044      -0.74372714822403
C         4.48348846653161      -0.70531267225044       0.11323208375535
H        -1.47450967954656      -0.07982850884365      -2.04163529188833
H        -1.36009840656689       1.58422375900312      -1.45781480375909
H        -0.24473832121676      -1.63034524629037       1.16464937539619
H        -0.73329095532680      -2.01747338065796      -0.50927067861048
H         0.98232654134471       1.05988792414670      -1.26851630425254
H         0.74922045132555      -0.64859106049226      -1.64091569284791
H        -1.53804914841891       1.04100978378848       1.58746215527469
H         0.12550275218045       0.58849259372518       1.89007263394136
H        -3.68720580454911       0.73449170463092      -1.49730676240691
H        -3.22795314874083       1.16015124768333       0.17127158799941
H        -2.51678575324494      -0.95838122077057       1.77590018026014
H        -2.54135093884198      -2.55806184798210       0.99087921968486
H        -4.37765614481257      -1.00964164643788       0.19447848868041
H        -3.32713356166746      -1.64550435523707      -1.12022784749218
H         1.84919077711502      -1.29958526370214       0.54657420804240
H         2.12820541973231       0.44806543276636       0.90050381843937
H        -0.12352876473719       3.00724757503730       1.80344201278111
H         0.90143275679974       2.52698226952418       0.42659220514763
H        -0.84072608176200       2.97442008802441       0.17180606047297
H         3.45663318434375       0.66534375110914      -1.19884190979432
H         3.17620744494562      -1.08007890770783      -1.56092829118030
H         4.35106774071433      -1.71894582226735       0.54794187223520
H         4.61207887398847       0.03198101987023       0.93359829313477
H         5.40049616196678      -0.70493642909618      -0.51314087898522
C         8.28777286726990       0.35452314928156       1.59111905016682
O         7.17432807543072      -0.07906755751449       1.83853296031266
O         9.26215304222554      -0.14722315599794       2.12792001315065
C         8.46578930057447       1.50003805550540       0.63902523067629
F         9.02681921893270       2.57183650664346       1.30869862720940
F         7.24709878452588       1.88707357441998       0.10832481418702
F         9.30477275095336       1.11835422937440      -0.39185552623661
