54
C14H26F6N2O4S2 optimized with ForceField in AMS.
N        -0.71209561109817       0.31967809677848      -0.15870605259800
C        -1.28194241313425      -0.44194324143443      -1.31715954927549
C        -1.83711643617385       0.72823686027505       0.74469034564097
C         0.27816429123447      -0.50128055650008       0.61992454634117
C        -0.07906142787211       1.55679013153984      -0.73109062876749
C        -2.13278824607269      -1.65821612974110      -0.91296547212783
C        -2.72606982139028      -0.44573130661411       1.20666086617179
C        -3.26605595425933      -1.23310610694026       0.01606743119810
C         1.55613659285284      -0.92564092162434      -0.14188012999026
C         0.66428817184375       2.46569837693805       0.27841720657096
C         2.47661262169964      -1.74173705781151       0.77598996580304
C         1.22962941992391       3.69801581976238      -0.42481179781405
C         3.75268609449253      -2.16183616995437       0.05400249768878
H        -0.48702033784449      -0.77620149532240      -2.01553474373419
H        -1.94048747523279       0.22432793630882      -1.92279673009388
H        -2.49785041739448       1.46645633398569       0.23418699733767
H        -1.45226731769474       1.22385737836260       1.66171649783527
H        -0.19113228184068      -1.43222419473908       0.98614077833696
H         0.58155627638391       0.04111296852550       1.54248955150729
H        -0.85640432947780       2.18116125290850      -1.23023282536719
H         0.63352622201369       1.28583818917205      -1.54200920167090
H        -1.51223157710679      -2.44617804296260      -0.43902484880873
H        -2.57217327824639      -2.10871414116207      -1.82904783090216
H        -3.58344401014391      -0.04199529091913       1.78696045952464
H        -2.17274386205243      -1.12061397052716       1.89215529956407
H        -3.98857105268857      -0.60164433565978      -0.54642797017671
H        -3.80677802766233      -2.13370437906094       0.37904930384125
H         2.11800931244907      -0.03828708644873      -0.49696652614224
H         1.29425458652397      -1.55835139543845      -1.01385160283406
H        -0.01990998730379       2.81480369268467       1.07762280533042
H         1.51429513991932       1.92954573574512       0.74701204809408
H         1.94681196036868      -2.65646895401847       1.12060002787981
H         2.75099019042779      -1.13770904796377       1.66858743970771
H         1.76628825618677       4.33551796470335       0.30901484179730
H         1.94443032929196       3.39530645064536      -1.21978143885687
H         0.40958767145847       4.29436299039039      -0.87886752756811
H         4.31747023829724      -1.26692907706123      -0.28309208881737
H         3.50683059574204      -2.79548500955577      -0.82452231522455
H         4.39405220107769      -2.74742631744361       0.74588002154155
N        -0.77181189874257      -3.73270068817356       6.79296968548492
S        -2.34435068505620      -3.98307691402655       7.17926927259148
S        -0.20535131076299      -3.84378108899333       5.25940445904990
C        -2.57004279727780      -5.69170457704948       7.62658647756735
C        -0.07603331579349      -2.21011944554957       4.56817885554307
O        -2.70411849013358      -3.12140118112456       8.35610201906809
O        -3.23768266174012      -3.64617009626951       6.01730488306296
O        -1.12219008804799      -4.67719352339501       4.40698376855138
O         1.16168648023321      -4.46630756047230       5.28364524159984
F        -3.88795249582759      -5.90593786766844       7.98265940714186
F        -1.75078482486020      -6.00033251598961       8.69587268248145
F        -2.24779003826039      -6.50218074929886       6.55484567253988
F         0.39472003599827      -2.30156254266760       3.27550966455090
F         0.80231270042738      -1.45510542563439       5.32157220782647
F        -1.31729889305379      -1.60286273350969       4.56392297089770
