43
C13H24F3NO2 optimized with DFTB in AMS.
N         2.51199915160688      -0.46950573133642      -0.24236486657523
C         2.44581088815367      -1.95384796014777      -0.01870334686030
C         3.56685975894508      -0.25429617872275      -1.31294989070951
C         1.20400104355595       0.07931965003755      -0.71924632215825
C         3.83878754176139      -2.45969141122398      -0.35842490274518
C         4.23801621855693      -1.60373250253421      -1.55684611019409
C         2.93575281268490       0.21090195907559       1.01339855423819
C         0.04744525931479      -0.11999701944581       0.25891403129206
C        -1.25883036868499       0.35940811281992      -0.38562395549501
C        -2.43980204620398       0.18821055115923       0.57466544413828
C        -3.74707809789560       0.66666088232976      -0.06501980891111
C        -4.92694755792040       0.49782762622499       0.89032405964491
H         1.70305212455045      -2.36739672998185      -0.70593182103682
H         2.14273360467427      -2.15324981068654       1.00886853830142
H         4.27841759940386       0.48048236048825      -0.93707737438289
H         3.08458545806544       0.13405179113577      -2.21077212828132
H         0.97625283561053      -0.41500072949078      -1.66776880233482
H         1.35729109986842       1.14525878882597      -0.90705696873161
H         3.82137881768934      -3.52421680974828      -0.59381879866355
H         4.52837219109536      -2.28478085666757       0.46970228597790
H         5.32038093746421      -1.48190093334583      -1.60532782279510
H         3.87934453457695      -2.04804292291046      -2.48917843648179
H         2.22840056468698      -0.01225056502093       1.80845574779883
H         3.92836808847149      -0.15151171749395       1.27885398612577
H         2.98094111499678       1.28287184250704       0.83574043898795
H        -0.04574619354716      -1.17640301431739       0.52517344455203
H         0.22301755923340       0.44772908718042       1.17600438166961
H        -1.44407819857646      -0.21175184518459      -1.30163414341642
H        -1.16062229109681       1.41423181597572      -0.66267486512772
H        -2.24923000580819       0.75892970188323       1.48975132012200
H        -2.53211911033371      -0.86732833447893       0.85240521473285
H        -3.65054250875257       1.72157044933299      -0.34277544747733
H        -3.93399477654668       0.09536096469677      -0.98057095191819
H        -4.76733112187985       1.07664449763585       1.80091964110871
H        -5.84415932239349       0.84452367149484       0.41437153198864
H        -5.05139944463279      -0.55102773849049       1.16282334757811
C         6.66717376426407       0.43860038681903       0.81825156042440
O         7.86793453380044       0.42972079592875       0.93342248712735
O         5.82090186783356      -0.40701214743899       0.49335520650451
C         5.92847714721396       1.87379659610300       1.14194513491956
F         5.09233723450091       2.21427523004431       0.11133227537538
F         6.72148530679419       2.92389868577874       1.34985128559217
F         5.11169162319850       1.77160741648984       2.22329536839561
