55
C17H18F18NP optimized with ForceField in AMS.
N         2.33341384040823      -0.00629817526387      -0.47749250058663
C        -1.48504587771021      -0.00423836866969      -0.68811015144779
C        -0.09279760372127      -0.00244784905894      -0.04655473168139
C        -2.58254656118924      -0.02073664887796       0.38239181286416
C         1.00881435644174      -0.02759348736126      -1.11198642116324
C        -3.97568395029316       0.00031675742835      -0.25660042102178
C        -5.06984034823157      -0.03718773977514       0.80638155367019
C         3.06218256908322      -1.15985016812850      -0.37249632477192
C         2.82878086945281       1.17249637514688       0.01063001138435
C         4.32050749033410      -1.15131717587310       0.23524234873499
C         4.08252557616861       1.21560945780885       0.62439425136434
C         4.83186026981102       0.04557207775156       0.73481754928517
H        -1.59192958765684      -0.90156185089855      -1.33688345167930
H        -1.59858716610994       0.90460050058520      -1.31956983712960
H         0.02032992849761       0.90814852136331       0.58148857496842
H         0.01743636551860      -0.89601895895900       0.60648564373163
H        -2.47591680565733      -0.93807834232343       1.00274782341908
H        -2.46782119096621       0.86755776831616       1.04227790731855
H         0.90462327843054       0.84702983525098      -1.79223279189713
H         0.88939997040482      -0.94003966610709      -1.73851449072458
H        -4.09532448041201       0.92424798938029      -0.86355429413869
H        -4.09524227615495      -0.87915106283777      -0.92634741170193
H        -4.98512452167170       0.84282262379493       1.47906112608472
H        -6.06573280590224      -0.01470440706653       0.31584058038362
H        -4.99131197403169      -0.96784975096189       1.40792364926108
H         2.67069517694746      -2.09705775070800      -0.75020386813948
H         2.25370587003344       2.08716429788396      -0.07283585758449
H         4.89195150581866      -2.06656752152143       0.32023457423345
H         4.46643360901479       2.14959563950608       1.01259742933522
H         5.80513070313015       0.06582984669004       1.20818637189731
P         8.69618727782741       5.03523361844154       1.19710868931853
F         7.37562805334102       4.74246032669427       2.26710960283588
F         8.10755801188771       5.04504234931480      -0.42256439275704
F         9.24115593142974       5.24856187944637       2.81505054641986
C         7.79652271876433       6.73841650052655       1.03046109567413
C         8.35063699203283       3.13694718701321       1.04679019685881
C        10.58787636564913       5.13589319147344       0.87400759945747
C         7.83583915790055       7.64721448317604       2.27842827932068
C         9.14454472586948       2.34796821828708      -0.02459870366407
C        11.30267637614634       6.46158837723981       1.19714999005298
F         6.45518432599728       6.51453802438574       0.74174825978663
F         8.31817526034995       7.45772997938054      -0.03318742535742
F         7.00669540459536       2.93598911723509       0.75080050511738
F         8.61154837893088       2.53989421252525       2.27105743082836
F        10.81125844574397       4.86774409831999      -0.46471117857458
F        11.22330810151483       4.15782806507098       1.62111331856347
F         7.08803515801489       8.78421231544167       2.02812704362063
F         9.12184995199136       8.04410182766952       2.57151415387666
F         7.29454422853184       7.01650399654712       3.38357658057287
F         8.60531183659624       1.07709658050564      -0.12529172596927
F         9.06433221557660       2.93696459762794      -1.27203289503707
F        10.47063270864079       2.20050992684371       0.32572556008878
F        10.73678798892021       7.52358451250791       0.52590599894008
F        12.62060592314039       6.36387971005234       0.78639989066061
F        11.30897797061945       6.70897514475895       2.55749020309734
