38
C10H20F3NO3S optimized with ForceField in AMS.
C         2.69998318836028       0.34654191458693       1.55906122009016
C         1.64319403705748       1.28148261123284       0.98931312851467
H         1.41681916239729      -0.82145752079320      -0.91087961612081
H         0.42997290213240      -1.69888480531943       0.30562153033358
H         3.19638027884322      -1.43003831692105       0.39738174066330
H         2.15043898779245      -1.72784010935934       1.84536739980859
H         2.64685148991273       0.34085113161363       2.67008183016474
H         3.71977502849326       0.66256073782505       1.24678835484792
H         1.35318832685667       2.05797612883406       1.73467551737103
H         2.10481643424459       1.81667762915622       0.12559710818414
H        -1.20299012533066      -0.50600812767863       1.48279465007242
C        -0.42939353424645       0.25994748987859       1.70501294838796
H         0.11841363712965      -0.09187972457718       2.60712246505362
H        -0.94275736675651       1.20912275303920       1.96801209570054
C        -0.19271587459420       1.15059041900105      -0.58920686239510
H        -0.31987693528200       2.22836340683884      -0.33354208280172
H         0.45185286362555       1.13953751942227      -1.49783457923653
H        -2.31102430164551       0.72914412943685      -0.12786334812405
H        -2.98562205225753      -2.09275209513215      -2.63048243520563
C        -1.63668512916817      -0.76990739811370      -1.56622768503228
H        -0.82330781723965      -0.89486463011734      -2.31297561824820
H        -1.50794539950067      -1.51545753842409      -0.75765863651880
C        -2.97628814177109      -1.05256243680494      -2.24234856048182
H        -3.13646205271168      -0.35608378314925      -3.09289250198504
N         0.48913371171927       0.45732418775722       0.55269907386784
C         1.10804937444958      -0.83127026394162       0.15935865509431
C         2.36024439097521      -1.02507470110638       1.00875860935330
H        -3.80683285541089      -0.93802129983011      -1.51313473629616
C        -1.60473193306077       0.64773342386057      -0.98046660162925
H        -1.98356140481989       1.34966180513984      -1.75653164208662
S        -3.35234368017371       2.87846189264237       4.71024904704377
O        -4.00252479975904       1.54327831956410       4.31811190362955
O        -2.11447304519705       2.44237480796563       5.50820041989691
O        -4.29422441627113       3.41746694699825       5.79741665913697
C        -3.02861553786526       4.01878592281544       3.33515454588886
F        -4.21790362006874       4.33411590946621       2.70680764049265
F        -2.17612099467985       3.42194967853327       2.42754871717937
F        -2.44504525977915       5.17330844435997       3.82013306368580
