46
C14H26F3NO2 optimized with ForceField in AMS.
N        -0.71061865634324       0.31541383477270      -0.15505247246666
C        -1.27830007670968      -0.44844610390382      -1.31425690892003
C        -1.83894725123913       0.72704813193625       0.74344466837011
C         0.27971707417365      -0.50322060658954       0.62899487640018
C        -0.07569835291082       1.55300728798209      -0.72775047544506
C        -2.13340661414337      -1.66206659244586      -0.91145072346737
C        -2.73779220938889      -0.44116455665628       1.20024097930323
C        -3.27109665996489      -1.23523389970052       0.01102859438085
C         1.55906932146290      -0.92736708637275      -0.13274390833661
C         0.66159860157401       2.46735721973487       0.28174635888999
C         2.48448617174901      -1.73880231590616       0.78462691175720
C         1.22537350537460       3.70284031507803      -0.41888060646983
C         3.75929442983881      -2.15891491979859       0.05828908592613
H        -0.48288529069989      -0.78672158852791      -2.01011111421200
H        -1.93345816915586       0.21679184708975      -1.92497306448074
H        -2.49346197616016       1.47066090053554       0.23292003539301
H        -1.45660165525859       1.21832981227460       1.66372641911386
H        -0.18795537273009      -1.43133238298647       1.01045817948893
H         0.58602134202592       0.04549865825664       1.54666363492031
H        -0.85070765224943       2.17641069611318      -1.22659809988798
H         0.63694514515556       1.28455863383011      -1.53939178398340
H        -1.51605116998477      -2.44956682536223      -0.43239721724713
H        -2.57036376068971      -2.11291663864885      -1.82895130366469
H        -3.59966848941321      -0.02921568378764       1.76861553729664
H        -2.19366259257421      -1.11393211307738       1.89515089079626
H        -3.99605113085288      -0.61111494677612      -0.55659985921717
H        -3.80854212724901      -2.13651233929005       0.37765440589079
H         2.11895016730081      -0.03904235188968      -0.48943521564644
H         1.29906732336185      -1.56196498884755      -1.00386021940160
H        -0.02711290409171       2.81546214569973       1.07749258639002
H         1.51222704140132       1.93533286437462       0.75338075485941
H         1.95619145749296      -2.65169937733742       1.13695055623598
H         2.76199707555616      -1.13039755616631       1.67305509881461
H         1.75794340622599       4.34010966396149       0.31840879717534
H         1.94436609963949       3.40441328934880      -1.21155076211396
H         0.40599818324241       4.29918174739065      -0.87441340486380
H         4.32353209599938      -1.26406618352930      -0.28025253448046
H         3.51214799612732      -2.79180521472922      -0.82040179056624
H         4.40398494659357      -2.74477776456627       0.74701293203515
C        -2.86692870699804       4.13203271860401      -3.68115431640411
O        -3.31366256644438       5.15802427679511      -3.19333008376841
O        -2.47747818736369       3.23677002811759      -2.94996843739827
C        -2.79097282829565       3.96585596810256      -5.16925998162937
F        -1.46582387749720       3.88456045828457      -5.55569220510415
F        -3.38411740972623       5.04045918766501      -5.80929620722771
F        -3.44522398726100       2.80471328044799      -5.53856231453478
