32
C10H15F3N2O2 optimized with ADF in AMS.
H        -0.45780940660343      -1.10213737817005      -4.64383126034897
H        -0.84926367788987      -2.72779509772588      -3.91775833127244
H         0.68127075031468      -2.47197506224754      -4.82063866134689
C        -0.05840679121806      -2.00633571311262      -4.16116762791205
H         3.13101746753390      -0.79171560650005      -0.99976536095801
H         2.61542337328115      -2.32695270469869      -3.26479464981249
H        -0.93362100257834      -0.34647288710932      -2.08258538073877
N         0.61854329062237      -1.57488904175540      -2.94257267860337
C         0.07651007951026      -0.72773672586113      -2.05335026313427
N         1.02270728496663      -0.37985655268694      -1.17299705260362
C         2.20988706228009      -0.98200435918585      -1.53431191566520
C         1.95862597648961      -1.72887027920424      -2.64659362125000
C         0.84881367959337       0.64304106659259      -0.13307994678300
H         1.83012226487322       0.76265737980545       0.34820029164265
H         0.63296327880806       1.58062588148398      -0.67443549956018
C        -0.21390138035463       0.25598097685214       0.88516319346398
H         0.04951474874272      -0.71497737896405       1.34350717295445
H        -1.18673611876264       0.11905608164709       0.37933619980039
C        -0.36108380249855       1.32427677795051       1.96787844219806
H         0.61604931247195       1.48092934093522       2.45981786362137
H        -0.62797713630427       2.28473968060176       1.49255907988101
C        -1.40903328828495       0.95402858776904       3.01395319099727
H        -1.14451150333338       0.01391568976211       3.52398020319165
H        -2.39933647530590       0.81809819182308       2.55021192694125
H        -1.50057798653560       1.73958313876921       3.77893594774917
C         1.12079739245466       1.49545305186705      -3.65875544505607
O        -0.06896354509901       1.10404849249970      -3.81885920243547
O         1.68542025554134       2.01630551641558      -2.67525307274556
C         2.05857044683921       1.26815366810486      -4.90155142658954
F         2.19614243485746       2.40693889841036      -5.64488591443984
F         1.59437085674307       0.29224997995535      -5.75707228188449
F         3.32048479984488       0.87255317607665      -4.53650079220103
