58
C18H37NO2 optimized with ADF in AMS.
N         0.92283339985316       1.72054953510020       0.16652691401573
C         0.14109386335628       2.86843058682812      -0.42482924619967
C         1.91578370244980       2.43502737923424       1.07585003816850
C         0.04025889182363       0.79354229933882       0.97213380125182
C         1.65844885504925       0.97423193310819      -0.93106052220731
C         1.16557784121645       3.97142113891501      -0.68875163411447
C         2.31589555394490       3.69676650760718       0.31426044709566
C        -1.04589106533765       0.10922882240647       0.16820059937350
C         2.34744077112078      -0.29616104105086      -0.45764754506279
C        -1.87186430756852      -0.78129476935475       1.09993465065041
C         3.39326903593976      -0.75835585428692      -1.47097024965324
C        -2.99206687876416      -1.52042214429540       0.37470159122363
C         4.09816391502370      -2.04180597678751      -1.03520845554531
C        -3.82030741558377      -2.41165744192375       1.29813906069786
C         5.15788591491196      -2.50951302499367      -2.03077832180099
C        -4.93294689247736      -3.14968521861769       0.55782508352484
C         5.86172830882524      -3.79013511880766      -1.58763387122309
H        -0.40312274061284       2.52841963972186      -1.31445850584808
H        -0.57944102007786       3.16775582514582       0.35019829548389
H         1.38315583106572       2.60830669118783       2.02817110762739
H         2.71623057988009       1.73098829907885       1.33437516761823
H         0.73866451505841       0.09973375031534       1.47489744978077
H        -0.36688393389336       1.40708135602188       1.78998680251022
H         0.92035456372398       0.76121929686809      -1.71950474130292
H         2.39281317204619       1.68390855897271      -1.34291449115539
H         1.52662432694154       3.93626193109661      -1.72737135535552
H         0.70405463611578       4.95806069342506      -0.54006166738776
H         2.45276282305226       4.52733592960137       1.02147856772550
H         3.27119354018599       3.56837499341572      -0.21720946950767
H        -1.71715411801266       0.84316287511905      -0.31440141845865
H        -0.61911379981165      -0.51624356157246      -0.63614178816509
H         2.80461644962280      -0.14290182054224       0.53493023750660
H         1.60058165447312      -1.09489667865811      -0.31300179917393
H        -1.19983497096856      -1.50741017836600       1.59130947096100
H        -2.29799467523539      -0.16142362383983       1.90980269455443
H         4.14746172654560       0.03967277363758      -1.60838099349548
H         2.92239193517767      -0.91769194381028      -2.46025007971669
H        -3.66001094346836      -0.78743576547991      -0.11697479895237
H        -2.55987017641852      -2.13947589746822      -0.43488481644602
H         4.56278814917939      -1.87977188158134      -0.04521855505750
H         3.34853370491147      -2.84304114977291      -0.89475255243323
H        -4.25474173556066      -1.79414403886832       2.10529175248516
H        -3.15321437372228      -3.14084499398227       1.79229201359567
H         4.68572860144619      -2.66877884665519      -3.01812469624752
H         5.90484521170809      -1.70630133871596      -2.17025870456218
H        -5.62636711791369      -2.43896072410638       0.08000115807885
H        -5.51814527468318      -3.78686332040088       1.23791814489462
H        -4.51718604331773      -3.79354364575515      -0.23433600483145
H         5.14045670073970      -4.61473823560760      -1.46886729900732
H         6.62060459260796      -4.10762392460115      -2.31885862675355
H         6.36462887163625      -3.64633437445752      -0.61784702961517
C         2.30326932969250      -0.05053497580325       5.09234631812844
C         1.84439313826504       0.50629198449950       3.73704130672715
O         2.36180927091442      -0.04443982989313       2.70651170057001
O         1.01394229350989       1.46345022441484       3.75402043940716
H         2.37163562403555      -1.14760745312991       5.05350943685247
H         3.31469271345548       0.32983662901970       5.30748161564861
H         1.63054173372218       0.26578903250615       5.90118998222226
