40
C10H19F2N3O4S2 optimized with DFTB in AMS.
N         0.61643230493487       0.23431850301774       0.78186974529596
N        -1.53033925837974       0.11517708980092       0.68998275295073
C         1.96750876381526       0.78580184385060       0.85312486949442
C         2.55359854800432       0.93209112230599      -0.55462040830789
C        -2.93773985083072       0.51142359046114       0.67970737372443
C        -0.50577556372320       0.94056704150039       0.89139687842552
C         1.74348153773358       1.89159549157970      -1.43065795853395
C         0.30384001581542      -1.06610117837653       0.49157773632883
C        -1.05213648652476      -1.14290502091281       0.43669274854335
C        -3.54611157750424       0.31148825262970      -0.71055682756178
C         2.35327498573460       2.01113169694472      -2.82514953195660
C        -2.83454397224159       1.14047391815053      -1.77637328318556
H         1.90748792373253       1.75171235839980       1.35842557186406
H         2.57689906047217       0.10368348619194       1.45158572900667
H         2.60435773215439      -0.05533667156112      -1.02622635366537
H         3.57566018838185       1.30528043114319      -0.44329657318026
H        -2.98599417678262       1.56301432310328       0.97259020121417
H        -3.46534818205941      -0.09623091726175       1.42053651545011
H        -0.57967019225992       1.99451231018013       1.14063642843439
H         0.71358363210784       1.52943105069311      -1.51407993291465
H         1.71240584087069       2.87770315812096      -0.96061628921136
H         1.05839472353909      -1.82129959927076       0.35722527691475
H        -1.70289034278371      -1.97831189669592       0.24699676878612
H        -3.51199175489078      -0.75054498709413      -0.97430368545074
H        -4.59610391255688       0.61054159465241      -0.65093475114105
H         2.36485311965721       1.04150396361829      -3.32625496589921
H         3.37643240627771       2.38360634903552      -2.76406427173302
H         1.76508450730479       2.70596315452018      -3.42381634880894
H        -1.78464629467355       0.85541738292550      -1.85035334222114
H        -2.89228286407109       2.19975196778161      -1.53067768699255
H        -3.30887825373021       0.97826995413162      -2.74368419689836
N        -0.86583045669671       3.84793734942236       1.67698194545108
S         0.66844934227077       4.26530718677771       1.84242464375897
S        -1.60611685200180       4.32640908817415       0.35658293758543
F         0.58993681581029       5.69766213980271       2.55605486832005
F        -0.85638177650923       3.41520673297988      -0.79634307568304
O         1.22403598789329       3.39078645164689       2.83084112217671
O         1.41096018339056       4.48206520236391       0.64187493807943
O        -1.42570648844320       5.66665612407934      -0.07624324122987
O        -2.92041725973789       3.76032170328704       0.39177091777016
