38
C12H19F3N2O2 optimized with ForceField in AMS.
N         0.36961034406663      -1.62446418429113       0.31074553036757
N        -1.75381840424716      -0.96651420279667       0.26349301799324
C         1.77061909361830      -1.72783248284392       0.71338096988950
C         2.63984195428291      -0.73183978225915      -0.06621797161117
C        -2.99157463004823      -0.27525809436025       0.61927686671500
C        -0.61469584514604      -0.99540484134458       0.98147220828676
C         2.22911604534094       0.72196768526462       0.21190909695547
C        -0.16672000533607      -2.01404125988422      -0.86353365637466
C        -1.48510618014133      -1.60909978171426      -0.89145959488774
C        -3.21751732480388       0.95010095923160      -0.27635162248004
C         3.17988073283556       1.70939603606116      -0.45538845209703
C        -2.08880374120169       1.97332637819840      -0.15067993183806
H         1.86997518101498      -1.53099396570433       1.80388859778835
H         2.13099939798285      -2.76248843056887       0.52653201243363
H         2.55911959859012      -0.94180630029970      -1.15524652236406
H         3.69874110120168      -0.88179507364781       0.23407221727873
H        -2.95708574965994       0.04805999048399       1.68330317703893
H        -3.84667835410999      -0.97629851684763       0.50938212342621
H        -0.48672403589383      -0.51425703087924       1.94319907695567
H         1.20638601346347       0.90224928287933      -0.18067865717696
H         2.22493079320651       0.91213825738235       1.30728015546439
H         0.36854259846573      -2.52203341809522      -1.65475162285937
H        -2.18238148123978      -1.74041583308466      -1.70825704646237
H        -3.30670771870499       0.63085719643816      -1.33711379178055
H        -4.17353380824081       1.43458129552416       0.01666084574329
H         3.24092682464745       1.51268571160108      -1.54696181514678
H         4.19139199882384       1.63003567491039      -0.00538924128654
H         2.80692958754745       2.74401630651971      -0.30230637567150
H        -1.14580245388902       1.56101073141866      -0.56602547323525
H        -1.93089336585858       2.25231979287999       0.91281094438386
H        -2.34962131108752       2.88746015762804      -0.72405620582487
C         7.29392675726139      -0.55627901829474       0.30745566021689
O         6.29294566076776      -0.43765689144159       0.99610286929493
O         8.28695390429327      -1.09080449953301       0.77446840199842
C         7.31340809989882      -0.04843695934723      -1.10429897395459
F         8.29425938646112       0.91741159647010      -1.23353088579876
F         6.09108508792364       0.50399805152770      -1.44243103234843
F         7.58687925071443      -1.09283767548126      -1.96792232583211
