53
C17H32N2O2 optimized with ADF in AMS.
N         3.28974510805931       0.50418655892455       0.15550453433116
N         3.22297864001217      -1.59424866829052       0.73402145101807
C         1.94055422588369       2.14400660191400      -1.17730416817497
C         2.93853921661447       1.91288720452851      -0.03253594938097
C         1.74668995114218      -2.87208047869654       2.32691942074730
C         2.73912212206367      -2.91220961377398       1.16854683051195
C         0.49776818016783       2.28225417992436      -0.69865615039507
C         0.28688879298522      -2.63282799637396       1.91903314060426
C        -0.48304604383781       2.44470779882892      -1.85494816679181
C        -0.29345778390254      -3.77119106199068       1.07880303975890
C         2.57145665158431      -0.42323049715932       0.81911629293743
C         4.34091094085801      -0.13038337155246      -0.48627386767335
C         4.28977380924376      -1.44142700017326      -0.13111006104585
C        -1.93246047925208       2.56077778722352      -1.38862370200205
C        -1.74093877992654      -3.51538353628777       0.66237514311234
C        -2.91051233626495       2.73371249089923      -2.54798362136109
C        -2.29411904600260      -4.62741292237985      -0.22602791783624
H         2.24195891634008       3.05186814843601      -1.72917613321645
H         2.00950088646756       1.29221369677454      -1.87455945771829
H         2.08137716858459      -2.13121419008530       3.07766489649608
H         1.81271069460408      -3.85384476359818       2.82989108429484
H         3.89043339645538       2.43424829667829      -0.21115987041516
H         2.53913628376376       2.28894763428086       0.92284361994441
H         3.63928846926977      -3.48024949464885       1.44808957543057
H         2.28627029130317      -3.33804689338578       0.25241942373674
H         0.41954305188283       3.14958997960494      -0.01422755115412
H         0.22244713189455       1.36739616121710      -0.14966574688323
H         0.19708720595554      -1.71012989108119       1.32187713337218
H        -0.31839654727232      -2.50587357907864       2.83590503063127
H        -0.21466073223045       3.33259946758514      -2.46000993256321
H        -0.38998534906342       1.56414456122089      -2.51567543605466
H        -0.23223483408122      -4.72388465842665       1.64125369438302
H         0.30777357905869      -3.89316705654963       0.16161660093238
H         1.71951734329286      -0.21600296547712       1.44567713118730
H         5.02793763688327       0.41191582344089      -1.12243524811338
H         4.90339414682441      -2.28304711380080      -0.42303535778568
H        -2.18956638560699       1.65332460031306      -0.81266982296745
H        -2.02528019334191       3.41346962074301      -0.69046102472815
H        -1.78457869479085      -2.55233502130857       0.12328931962059
H        -2.37179003154869      -3.40312099134409       1.56420617105803
H        -2.68136484953336       3.64648158697010      -3.12187485978727
H        -2.84722252001817       1.87879837535650      -3.24005231225918
H        -3.95156363377070       2.80961466918113      -2.19641210520399
H        -3.34460084532561      -4.44449336842543      -0.50381002373025
H        -2.24651555427641      -5.60201867259465       0.28711176579614
H        -1.70605915653527      -4.70752579953552      -1.15400423095036
C        -0.21592223050495      -1.57325660342320      -2.69993123836666
C         0.80469169394591      -1.67526438622550      -1.55757230748314
O         0.70252687460265      -0.75979850493627      -0.66665998702421
O         1.63651598508977      -2.61746475877776      -1.58999165408210
H        -1.22445366218890      -1.38331069758768      -2.30319164746630
H         0.04193500729372      -0.71785747334882      -3.34533412445691
H        -0.21176300485146      -2.48669691202757      -3.30902483563338
