44
C12H26BF4N optimized with ForceField in AMS.
N        -0.71399148228677       0.31480006753055      -0.15248081720025
C        -1.28258068034956      -0.44817852882424      -1.31060809366141
C        -1.84027939122175       0.72623458130679       0.74783698739162
C         0.27951868647871      -0.50459451694922       0.62731853270445
C        -0.08232134090663       1.55321753251169      -0.72569899304031
C        -2.13478656491972      -1.66242694072141      -0.90574394046825
C        -2.74076304486829      -0.44060976746867       1.20333655437247
C        -3.27309088411733      -1.23381656899460       0.01379242469544
C         1.55684763051077      -0.92279211319993      -0.14222332810043
C         0.65174029848344       2.46604015978651       0.28783805593299
C         2.49327413794810      -1.73715085166312       0.76028632107625
C         1.21919415858285       3.70261321684474      -0.40516782771459
C         3.75588063588318      -2.15549581023128       0.01160898076924
H        -0.48721735486641      -0.78559421497300      -2.00646382959078
H        -1.93776250027640       0.21708509217467      -1.92068413475611
H        -2.49369693449549       1.47212003104125       0.23893346151734
H        -1.45501451201749       1.21411506103384       1.66894436086742
H        -0.18580638000858      -1.43434880911891       1.00663332847273
H         0.58675562589414       0.04153488441074       1.54604080535189
H        -0.85905174690938       2.17451087230465      -1.22909871664325
H         0.63347758041233       1.28424157385096      -1.53439460500718
H        -1.51687583166568      -2.44700890627211      -0.42338050215250
H        -2.56910426599240      -2.11793155407415      -1.82200528162407
H        -3.60382241256274      -0.02779491042749       1.76944993267554
H        -2.19778136404839      -1.11337114608147       1.89917875330606
H        -3.99565478720458      -0.60824318913198      -0.55555976052100
H        -3.81318339428221      -2.13361562121091       0.37943505055972
H         2.11269224218911      -0.03185029055388      -0.49636378281113
H         1.29441556844585      -1.55220136186239      -1.01580006749770
H        -0.03922677015217       2.81209882975632       1.08189759228366
H         1.49979629154827       1.93294448235213       0.76206117361176
H         1.97001569111979      -2.65070850684828       1.11777218527835
H         2.78580450130462      -1.13067941014847       1.64488744284390
H         1.75079646211766       4.33463582813029       0.33731895808989
H         1.93998687210854       3.40672586566498      -1.19693792835090
H         0.40128114134634       4.30229825557056      -0.85818869598340
H         4.32852311631468      -1.25976020762332      -0.31029456703346
H         3.49432772485844      -2.76463043152272      -0.87965440782241
H         4.39878776716747      -2.76630856638862       0.67717525828036
B         6.89034752952679      -3.14624732851615       3.44777583112700
F         5.53690627625355      -3.07815318424023       3.02562732900180
F         7.01439047078603      -2.55027076871717       4.73063166472258
F         7.71229217759052      -2.45148574699067       2.52101982420017
F         7.29682500738082      -4.50528396811627       3.51519731704652
