37
C9H13F6N3O4S2 optimized with ForceField in AMS.
N         0.06902054906616      -0.63514689066794      -0.45077916315968
N        -1.99808172758516       0.12201130389256      -0.13893261750729
C         1.44907284577793      -0.73558992534324      -0.92461437062695
C         2.44491532061031      -0.40139307414638       0.19282168411865
C        -0.82715978831858       0.31793738066692      -0.77490512524109
C        -0.55862523108588      -1.46223690989882       0.41070540960062
C        -1.84314428770907      -0.99258677605308       0.60095437701310
C         2.28228946986709       1.03261436396651       0.69525808095240
C        -3.18551959385708       0.96472769774824      -0.19948974537061
H         1.61065250338289      -0.04385228201445      -1.78075153222541
H         1.63759925722679      -1.76810404093684      -1.29043023737591
H         2.31397777930435      -1.10768693146071       1.04065723841836
H         3.47729052010339      -0.52625593676946      -0.19995401559143
H        -0.62454884599356       1.14575288365894      -1.44321486480479
H        -0.11520904471397      -2.33542815168314       0.87180250098421
H        -2.60445382582964      -1.42503226334763       1.23570975741815
H         1.29371075141746       1.16202884288476       1.18441285858984
H         2.37205770901695       1.75143128980737      -0.14699686076351
H         3.07378963384643       1.25764815656918       1.44052255944870
H        -3.01016717487234       1.83754910353804      -0.86412169969255
H        -4.04129333845410       0.37734307963533      -0.59285603767834
H        -3.43242133270683       1.33497791001312       0.81801854808851
N        -2.52300381502851      -4.23326422255017       2.26332411083970
S        -3.69988882649929      -5.14329639618716       1.57435906305319
S        -2.69955084500831      -3.52537776852991       3.73166650093126
C        -4.68829182784464      -4.11728223715965       0.50526102211274
C        -1.96440284833077      -4.56339802101420       4.97666737206515
O        -3.06692600649344      -6.23047125323021       0.75343037193977
O        -4.57920215561114      -5.75831202826157       2.62786714914322
O        -4.15433512885408      -3.31619547896498       4.04936812565912
O        -1.99022432144713      -2.20147007797954       3.73350760425503
F        -5.67396652899270      -4.88326973641332      -0.08804982328195
F        -3.88729943462845      -3.56341586088653      -0.47519176187004
F        -5.27592729085785      -3.10625730039439       1.24102697591434
F        -2.10965372046175      -3.96974860376289       6.21621859105295
F        -0.61987523661836      -4.73019209329550       4.70403874883682
F        -2.58713713681710      -5.79666047242931       4.98339875215373
