55
C15H32F6NP optimized with ForceField in AMS.
N        -1.09056220401572       0.82230343452518      -0.17765020586624
C        -1.57461401892398       1.86321106542422       0.78839526118001
C        -2.06710932560191       0.72852474652173      -1.31204187826181
C         0.20956539942408       1.28858056046510      -0.77285711760890
C        -0.93291628055583      -0.49261005504803       0.53818852231774
C        -3.02010229283453       1.64246450804856       1.27904628556543
C        -3.51159294463588       0.44060743436327      -0.87426755299048
C        -3.99337718647551       1.50130823245088       0.11120272304165
C         1.41268858361231       1.36862738686201       0.20080440325234
C        -0.34523925305775      -1.65147319291380      -0.30485700697148
C         2.65680414694302       1.88645308929427      -0.53375232574366
C        -0.21238912592232      -2.92052953055929       0.54701833188052
C         3.87905618903758       1.93391742760034       0.39074342091450
C         0.37062500255267      -4.08077254222690      -0.26831745864077
C         5.10547366997707       2.45681927569445      -0.35309203116069
C         0.48703603205779      -5.34540526152172       0.57897489404024
H        -1.53192860118756       2.87600370282427       0.32544586370660
H        -0.92968079264983       1.89920236843458       1.69279905271751
H        -1.76003906055894      -0.03609652981739      -2.05509225710394
H        -2.08820465767940       1.68869621215349      -1.87842240205623
H         0.07756343569720       2.30060568006117      -1.22192504896080
H         0.49918400830911       0.63815698334813      -1.62864694811537
H        -1.90343055556995      -0.84501307298213       0.93881167254860
H        -0.29959786684611      -0.36202050008097       1.44368785247807
H        -3.32568119297305       2.51637613625447       1.89401794131866
H        -3.08372559916811       0.75263892135698       1.93893972858778
H        -3.60471144947388      -0.57339475010342      -0.43401751950329
H        -4.16754380327633       0.46129050216209      -1.77113963858567
H        -4.09025179332355       2.47870111455280      -0.41162944600069
H        -4.99676665698933       1.21827032630666       0.49706835175036
H         1.19027463528544       2.05864274009602       1.03987342381917
H         1.65052245079586       0.36671683081355       0.61298847049158
H        -1.00898614543207      -1.88181565448359      -1.16227602121682
H         0.66109538570240      -1.38860056263279      -0.68890786134513
H         2.45218106885456       2.90835241094692      -0.92301565599901
H         2.87880801811667       1.21799298799710      -1.39514150845419
H         0.45285424379393      -2.71190175006419       1.41400420565989
H        -1.21545989452306      -3.21050850050189       0.93094720431839
H         4.09912894227260       0.91399283377114       0.77585450236856
H         3.67039433431943       2.59994526270120       1.25632986643414
H         1.38015228489039      -3.80465012787262      -0.64398011351133
H        -0.28462949782028      -4.29248521279388      -1.14140451224713
H         5.97082074335391       2.49896388428342       0.33833393712197
H         5.35964709444540       1.78396199577051      -1.19946468451480
H         4.91523568122275       3.47961504416012      -0.74173746565131
H         0.91367368384070      -6.16691733227024      -0.03413137613766
H         1.15514012957273      -5.16818161770695       1.44854550257328
H        -0.51415792411177      -5.65926706442527       0.94390631612695
P         7.54984867840886       0.91509249114883       3.34382323495052
F         8.62302713604601       1.97450410905694       4.16648372778250
F         6.24425996024051       1.98169543794646       3.67524738632907
F         7.92126297293762       1.75311602890120       1.89204518030797
F         6.43356642014163      -0.09993569250739       2.52187896297309
F         8.81938626994951      -0.18041163827996       2.97119984749908
F         7.30844812410492       0.07327895509438       4.82179904579124
