41
C11H9F18N2P optimized with ADF in AMS.
N         2.64389407122748       0.52492631003949      -1.24069595349164
N         1.22430769676535       0.65544929911235       0.39592609238998
C         2.20027868646227      -0.08900317148861      -0.13594593494217
C         1.94354321514691       1.69858173168632      -1.40531001098333
C         1.05141049217688       1.78230504999377      -0.37774165733567
C         3.72252893088323       0.03479914893814      -2.09864940062157
C         0.49405804920524       0.34927684962182       1.62210755843158
H         2.59345040688577      -1.00778824505786       0.28029040700468
H         2.16682346495692       2.39163236265830      -2.20588410140014
H         0.34795389949373       2.56021790911798      -0.10955344313122
H         3.40217671951110      -0.88702071053269      -2.60075165350780
H         3.94541040808037       0.80673301043007      -2.84083211869956
H         4.61803851247383      -0.13207336158811      -1.49031061959166
H         0.65625967595809       1.16069939599536       2.33922303138555
H        -0.57257805232408       0.23871659733852       1.38869466017771
H         0.88324030568039      -0.58390246751082       2.04238643735090
P         4.95334095322864       2.91623167734000       1.79990748156129
F         4.63920346793718       4.50510412548561       1.44076475250114
F         6.45886349474956       3.21702337895118       2.41342885594092
F         3.42726458695596       2.50334464973506       1.19910050512404
C         4.20595789455837       3.37697431726997       3.56495263477034
C         5.80559578845389       2.86612617175419      -0.06518744690854
C         5.21661456950775       0.91082015481459       2.04936288264452
C         2.68651495286057       3.71372475463428       3.69268105877019
C         7.07387531447305       2.04578447658030      -0.50147452812765
C         4.51187223878696      -0.04120012469010       3.07499568172230
F         4.84575975325616       4.50352129888947       4.02370823901499
F         4.43970775245698       2.39128992721144       4.50413607110777
F         6.21618520045767       4.15148742137210      -0.33094104925041
F         4.84280526932019       2.56147391317172      -1.03059063750414
F         6.54889615402599       0.61251200055767       2.17417558796937
F         4.79851228046290       0.36564394550625       0.82545172487440
F         2.42600450476834       4.18600344806285       4.94087993436870
F         1.90696837831158       2.60190285408723       3.52627114722889
F         2.27655863842148       4.64306907236046       2.80434962464341
F         7.45799430583781       2.47774374423199      -1.74161087725445
F         8.10548855274859       2.23714592759230       0.34175608967324
F         6.85878982015728       0.70822878873633      -0.62582418011200
F         5.09692166620197      -0.04191573537286       4.28202650575838
F         4.57297420556382      -1.33192575624392       2.60497743622270
F         3.18955703901384       0.24834218300788       3.21195919572495
