31
C9H20ClN optimized with ADF in AMS.
N        -0.00182750862294       0.33106079250863       0.16220839385858
C        -0.99875874653864       1.21000268601517      -0.56407213805266
C        -0.40932635430002      -1.13297311545548       0.02338497824089
C         1.34623582523902       0.54110924894763      -0.50709234585607
C        -2.43977342992090       0.98189869475961      -0.13068891799771
C        -1.83642069510105      -1.37080529348045       0.47734963099228
C        -2.83704186929389      -0.48820178841498      -0.26398015401352
C         0.09586907282791       0.71034364063108       1.61631875737829
C         2.51873443831861      -0.19657601740653       0.11282920524212
C         3.79139194352668       0.10671346731076      -0.67745193824137
H        -0.88615805520434       0.97143029186735      -1.63507598936029
H        -0.68439992454264       2.25232444927311      -0.39918772225329
H         0.28867974773718      -1.71230718121003       0.67611978986916
H        -0.28147249608705      -1.37531097840102      -1.04552046907965
H         1.51761411461374       1.63135341684278      -0.48918948112413
H         1.20572281776288       0.23708916259024      -1.55816141093858
H        -3.07501925229872       1.62188927539262      -0.76638838090797
H        -2.59034512064932       1.32721757039056       0.90616199801411
H        -1.90028401945227      -1.22707838237549       1.57005703407136
H        -2.04725402238229      -2.43886445939708       0.30579512704599
H        -3.85727628656736      -0.64035485935056       0.12349776565211
H        -2.85044791650255      -0.76526371185183      -1.33557573491802
H         0.63166354438196      -0.11723368030137       2.14611800408795
H         0.61973246097055       1.67465537686851       1.67801260796550
H        -0.91511509272622       0.80627203698034       2.02528555557329
H         2.65175945793396       0.09472736511951       1.16551939387873
H         2.33154159342292      -1.28072103981428       0.14640189087071
H         3.70848891666797      -0.21959814774097      -1.72727037482153
H         4.02738178604735       1.18408290486106      -0.67232014304280
H         4.64185538016657      -0.42547458594429      -0.22677448539569
Cl        1.27657977287290      -2.19768526791462       2.57521806316220
