60
C16H34F2N2O4S2 optimized with ForceField in AMS.
N        -0.01594446881505       1.98478967465111       0.00844376861181
C        -0.69995973320179       2.89100301060804      -0.96544356088290
C         0.65363220926424       2.89959878506110       0.98388726286132
C        -1.02687437840616       1.14303343379114       0.72805669754374
C         1.00813830417933       1.15997831458881      -0.71222597451531
C        -0.22191447776961       4.30838135774676      -0.71341996454290
C         0.14071406264482       4.30671444511834       0.74462757531894
C        -1.76751434950715       0.12264001846277      -0.16989767409432
C         1.76495497453202       0.14956584519178       0.18396341908757
C        -2.87981811538696      -0.58563561675509       0.61232804723614
C         2.89119350081717      -0.53557547774686      -0.59935262822177
C        -3.61824068755418      -1.59809547864625      -0.27163630933804
C         3.64121159555873      -1.54690742765438       0.27643175005104
C        -4.69315751149792      -2.34442072265528       0.52639863624178
C         4.74653485045824      -2.24898839460635      -0.52068610383510
C        -5.44126781182919      -3.34270298768827      -0.35267370136789
C         5.50234636101441      -3.25398794500760       0.34358966779549
H        -0.51716774174132       2.61445848511323      -2.02886213840673
H        -1.80638707680971       2.89617567995815      -0.83221686424231
H         0.48508106678516       2.61134678997121       2.04652455239386
H         1.75865463288080       2.93122808022076       0.84242877702022
H        -0.54879292651968       0.58869170888245       1.56560286120387
H        -1.78419824849512       1.80388660233638       1.21054328123430
H         0.53888909176625       0.59986779187654      -1.55092882437636
H         1.75490571605211       1.83340360193268      -1.19379529608913
H         0.68167559882155       4.51724242304998      -1.32824003204440
H        -1.00922007617672       5.06112856784120      -0.93749420493712
H        -0.76776833035218       4.48756434013339       1.36112336335607
H         0.90923035288284       5.07664718522589       0.97525123872173
H        -2.21164252653330       0.62884688022487      -1.05217927094165
H        -1.05942017656186      -0.65004416864776      -0.53411353041550
H         2.19852592532946       0.66087886875353       1.06863085104660
H         1.06978028826713      -0.63660827882440       0.54432849070224
H        -2.43370280089802      -1.11362575665738       1.48385931669258
H        -3.60512191084746       0.16834429807908       0.98962880357578
H         3.60654832987532       0.23294122806008      -0.96611925534566
H         2.45702227778843      -1.06168149761857      -1.47802954060541
H        -4.09468012489191      -1.06281713517387      -1.12248351963141
H        -2.88968400610243      -2.33266492260848      -0.68035570104722
H         4.09179489791734      -1.01784916099745       1.14505282462904
H         2.92464682552708      -2.30697758238239       0.65887654702437
H        -5.42262581799946      -1.61762244313597       0.94554578452128
H        -4.21971866093271      -2.89348132838819       1.36943480195502
H         4.30131869060569      -2.78460254055209      -1.38745746006286
H         5.46679728790160      -1.49480817400569      -0.90427102767783
H        -5.95226596207081      -2.81556878022760      -1.18625233624396
H        -6.20592514025720      -3.87201927554731       0.25398588816606
H        -4.73731857969787      -4.09384609332402      -0.77009100924295
H         4.80812028058632      -4.02966703777948       0.73146157523223
H         6.28658385956848      -3.75149993959831      -0.26531256257447
H         5.99046632035389      -2.73791257900277       1.19743975043528
N         8.73369566497127      -2.87087469197198      -2.43193799588288
S        10.21893627751658      -3.36458971357424      -1.95577388832226
S         8.47451980530234      -1.34347784972047      -2.95642043556598
F        10.56637541187363      -2.69815121967364      -0.46042303957571
F         9.29752156787926      -1.10575406308976      -4.39446565049095
O        10.24003773486278      -4.86319690030064      -1.85201674656750
O        11.25636474370733      -2.90972540758096      -2.94408707746593
O         8.98128778660442      -0.36059638337456      -1.93839385024611
O         7.00424830405976      -1.13052629216121      -3.17872542725784
