46
C14H29NO2 optimized with DFTB in AMS.
N        -1.86870715233143       0.43498000976149      -0.07484883976324
C        -2.30592877963117      -0.77509947720689      -0.83659703250937
C        -2.92661169427087       0.58521529662894       0.97749322811168
C        -0.55090677611018       0.20468747989487       0.61012348075637
C        -2.85943972759566      -1.73223228240615       0.21659695199200
C        -3.27766734937351      -0.83776192093100       1.39626569825760
C        -1.83780305708894       1.63027722263218      -0.98116768572704
C         0.64451422455155       0.01382845598849      -0.31671377826041
C        -1.38978551477238       2.91015486300241      -0.29254538498139
C         1.91256141616275      -0.00782022049461       0.54793427526555
C         3.17065770577029      -0.11346678774920      -0.31652244119874
C         4.43339824178019      -0.11576985878349       0.55087576044192
C         5.69694076914862      -0.21403196934749      -0.30231161133982
H        -1.46787818160242      -1.18265767843224      -1.40095259288405
H        -3.09014972306854      -0.46533160369577      -1.53185477185921
H        -3.78458013922538       1.08208286155083       0.51873967645150
H        -2.52622402952865       1.20459419894054       1.79214164782596
H        -0.67197173636360      -0.67138466551321       1.24934065073398
H        -0.36741854235891       1.08455785488759       1.24447273627729
H        -2.09722217966884      -2.45084506522941       0.52470427056767
H        -3.70558280717877      -2.28910802221764      -0.18965055931089
H        -4.34700334367039      -0.91764713998549       1.59935742365795
H        -2.73989846926150      -1.12086863782360       2.30311311485615
H        -1.17781367385461       1.38560332188847      -1.81749844096112
H        -2.85317787393796       1.74730953901797      -1.37213186409505
H         0.56621771650589      -0.91756895696937      -0.88844976982956
H         0.71839132058724       0.84156813577519      -1.02677434662318
H        -1.53255808135933       3.73405919749219      -0.99155587622554
H        -1.97419604219653       3.10010273479530       0.60592324240546
H        -0.34003559131755       2.86622058028720      -0.00896148425337
H         1.86660917314028      -0.85626843401860       1.23900946586533
H         1.94576499901023       0.91034669092189       1.14320988625549
H         3.20749948231234       0.73313632610905      -1.01100633659686
H         3.13331556038493      -1.03263104275273      -0.91313447576342
H         4.46599051700723       0.80304491911115       1.14508323072970
H         4.39651730674042      -0.96210284901208       1.24526831631572
H         5.76293637709040       0.63301103722249      -0.98680589225553
H         6.58076526574172      -0.21365333789477       0.33619168496671
H         5.69286402110016      -1.13410696905534      -0.88911449681962
C         0.06601818388836       3.62477932584209       4.14312353079713
C        -0.33757534409221       2.78976491889492       2.90716357678584
O        -1.54424650893188       2.46847622275832       2.82146606734839
O         0.56688575765598       2.50481409938544       2.09358561368955
H        -0.53641123740927       4.53165940634206       4.17204256414265
H        -0.13683345311501       3.04577758484419       5.04331727598105
H         1.12243837483694       3.88140301364384       4.09942529227879
