49
C13H16F18NP optimized with DFTB in AMS.
N        -0.44939807711349       0.69255457318481      -0.44612600067163
C        -0.27793047034426      -0.76747211922557      -0.17569856204364
C        -1.61454824777416       1.06635327157994       0.42145176947274
C        -1.69984404786704      -1.31718540712886      -0.05024701908030
C        -2.57861945898778      -0.10770644344124       0.31079730499506
C         0.74456038367017       1.50689191022283      -0.04772780282205
C        -0.77858231104342       0.91400399431785      -1.88241263410554
C         2.00378034039463       1.16931670453524      -0.82856172379384
H         0.26953950323566      -0.87118035587444       0.76408915380700
H         0.29334486405430      -1.22887131082621      -0.98109252674851
H        -2.02994554129775       2.01227830467722       0.08405062565608
H        -1.24170529099284       1.17427266361708       1.44239717128809
H        -1.73561570464100      -2.08641004431673       0.72297715461957
H        -2.02444912173627      -1.76618766180511      -0.99083046264056
H        -3.32530434782730       0.07755713069964      -0.46344356183022
H        -3.10073231917275      -0.25742195589172       1.25683284967841
H         0.46839665228132       2.55252504790015      -0.19975786702615
H         0.90649962059556       1.33344628002031       1.01945615849510
H        -0.00508751801459       0.46493447520453      -2.50063713791893
H        -1.73850823883255       0.45610546279208      -2.10359133680604
H        -0.83430930395104       1.98205870551499      -2.07000476750222
H         2.81826002753432       1.76459337445671      -0.41697983990310
H         2.26372517183369       0.11557832790562      -0.73527684082094
H         1.90014095422941       1.42240121814843      -1.88151352788002
P        -2.10560725329334       4.77040050265065      -1.96375847964613
F        -1.26364986104311       3.74424509817819      -0.85355666279968
F        -2.49827204725715       5.82992303965816      -0.74363131876790
F        -1.70542655902476       3.66852562931204      -3.20116749737418
C        -0.34267942681929       5.62670222288311      -2.10220674837710
C        -3.62711067170146       3.59629546200119      -1.39630326876850
C        -3.13051907135480       5.82423530188686      -3.30720815726676
C         0.82049904337216       4.85158418180626      -2.78045471570167
C        -5.14819701743227       3.73045844201502      -1.71140104870655
C        -2.51902353344315       6.53571826337717      -4.55079847210974
F         0.09096124265697       5.89342479157431      -0.85675434782864
F        -0.44861805119842       6.80554606198153      -2.74020828636221
F        -3.56843524073262       3.59784454101712      -0.04639837479412
F        -3.31758539100677       2.32313095631899      -1.77004300366133
F        -3.88778635062630       6.73818873632623      -2.68190006647285
F        -3.96849411782225       4.89247275883065      -3.81818773002940
F         1.97499996185766       5.49070502261202      -2.59836587454179
F         0.64480439099377       4.68357356495094      -4.08120975485938
F         0.96345994666730       3.62750052795965      -2.23191929417335
F        -5.83263579339134       3.06463385350406      -0.77098680448067
F        -5.56734477794850       4.98687085988027      -1.69664804344619
F        -5.45964814678737       3.17761397702416      -2.87812547743070
F        -2.18107756516320       7.78922545359835      -4.27696510718428
F        -3.40961208362074       6.56372764212068      -5.54170857457302
F        -1.44213274051385       5.88983796996488      -4.99598527336225
