46
C14H26F3NO2 optimized with DFTB in AMS.
N        -0.78024044726962       0.20991385421033       0.02382823110148
C        -1.28621747311400      -0.43299068495654      -1.23175971634387
C        -1.96157789659938       0.48659598770778       0.92006180681312
C         0.22061063664521      -0.65452828340489       0.73904692313979
C        -0.15761000167654       1.52463315544293      -0.37390840766850
C        -2.05041433791131      -1.72369166739847      -0.96003513605387
C        -2.79256577654497      -0.75260995420327       1.22177771542792
C        -3.25081428323506      -1.45312445104461      -0.05415885510107
C         1.41898550811760      -1.10215240265767      -0.09003101172696
C         0.54861408654503       2.28454081532834       0.74997676799448
C         2.37427491335003      -1.87820916532491       0.82890889863629
C         0.91820412132452       3.68205072641387       0.25563312952410
C         3.64628796958745      -2.28248211366557       0.08857745323701
H        -0.43274037439708      -0.61594406557760      -1.88721712644119
H        -1.94526753862922       0.29409916598987      -1.71556406086213
H        -2.57165105090399       1.23509483191977       0.40613535755866
H        -1.58591708511491       0.90491006042035       1.85790677520201
H        -0.30769849856800      -1.52244282662338       1.13267975761051
H         0.57221294878040      -0.07172114061681       1.58698022037137
H        -0.96680954748327       2.13634528844377      -0.78367743010698
H         0.54864253773318       1.31420344137566      -1.18196705963495
H        -1.39278429774256      -2.46992568163604      -0.50777122971276
H        -2.38743222211058      -2.11598466097605      -1.92354917901093
H        -3.66162004215775      -0.41887940552063       1.79424970491249
H        -2.22857629449228      -1.43547077039375       1.86080670547191
H        -3.97204113367836      -0.82398300500188      -0.58729755588365
H        -3.74209120123926      -2.39628770415636       0.19575766779791
H         1.94375597522218      -0.24001354672033      -0.51136532536974
H         1.10872484529184      -1.74938440314762      -0.91582989651743
H        -0.09343988423970       2.36939610727273       1.62851947339127
H         1.45916990391737       1.76222898811626       1.05141896020027
H         1.86595419616874      -2.77255365221089       1.20233478076134
H         2.63228408463812      -1.25690249100910       1.69111799408027
H         1.43835544707445       4.21810238915418       1.04829310926135
H         1.57356936481846       3.62489518543443      -0.61488957119421
H         0.02410593669505       4.24479888669490      -0.01612607993962
H         4.18191550941485      -1.39963128573990      -0.26317862701014
H         3.40893526212767      -2.91119579812218      -0.77118332127836
H         4.29971641106330      -2.84109834884340       0.75817919348584
C        -0.16002467789181       0.10389627142273       3.72195905050182
O        -0.69979405754253      -0.97580301400357       3.49646781985115
O        -0.52663892288969       1.26150109676889       3.51618327542934
C         1.37205668010330      -0.00565133916595       4.22895725785731
F         2.16721034941433       0.50582333159068       3.24166998714757
F         1.78408152691234      -1.26934783228980       4.40667753254837
F         1.65930815338647       0.67443087240370       5.34301351114140
