31
C9H14F6NP optimized with DFTB in AMS.
N         2.15990699027458       0.48711390174365      -0.36804615985188
C        -0.20700034398136      -0.07607078432612      -0.05855122159025
C         1.13829330818304       0.15677689936548       0.63062690633781
C        -1.27776049697189      -0.44865667427126       0.97189926534826
C        -2.62837558839610      -0.68962409581461       0.30142387440428
C         2.51872636205145       1.76639232846185      -0.55601666918796
C         2.76795832538905      -0.50988638858167      -1.02646499547749
C         3.52274055202543       2.08808066963717      -1.44359920782563
C         3.78541335226563      -0.23889708433249      -1.91899695351419
C         4.17854068825298       1.07390292386289      -2.13038023313774
H        -0.10139865890994      -0.88093401906959      -0.79281677855897
H        -0.50210220814061       0.83217552947528      -0.59430511419164
H         1.47314743338796      -0.74018170071842       1.15709871015139
H         1.07544945471077       0.98345789118655       1.34140299837842
H        -0.96661330926324      -1.35242511128919       1.50512478380303
H        -1.37116424197582       0.35882036851280       1.70526338952876
H        -3.37217186735864      -0.95272087041931       1.05306357552071
H        -2.96281531581822       0.20794527229870      -0.22038528470646
H        -2.55775653977554      -1.50543752023164      -0.41896872836959
H         2.00457575174746       2.51493874767504       0.03401360837565
H         2.45678243788709      -1.51929462891009      -0.79197545584453
H         3.80924578349921       3.12453460107544      -1.56635060995670
H         4.29602938999722      -1.05862136050450      -2.40521813422665
H         4.99715748984794       1.30293258187497      -2.80110635813630
P         5.06508970260931      -0.77088475443874       1.50715422183086
F         4.51172094777846       0.70275979308315       0.92972481983239
F         6.56554317889278      -0.15748095157612       1.64589527860558
F         4.66994727301034      -0.30757833651442       3.02302844269180
F         5.54852467324995      -2.23362741112891       2.03118751083402
F         3.49284954537161      -1.37626271801926       1.30706180499124
F         5.37481618485906      -1.22419233560663      -0.06789415965823
