45
C11H24F2N2O4S2 optimized with ADF in AMS.
N         0.59972447078487       0.53859868792056      -0.16776785682325
C         0.09437628597121       1.47204613996173       0.92409024527823
C        -0.59975910547075       0.02977624817825      -0.94377370339467
C         1.38332227757412      -0.61320264078639       0.45102854363380
C         1.47213790147378       1.32693915124206      -1.13046798507041
C        -0.90596480167900       0.80301937246027       1.84722532943504
C        -1.62559116398459      -0.67049717509966      -0.06622287932716
C        -2.09535953485717       0.23423377866987       1.07506864888470
C         2.09335738839042      -1.52306170122043      -0.53663959392316
C         2.71720254681405       1.94518233530567      -0.52094756327833
C         2.60592903991212      -2.76159353332376       0.20251967083117
C         3.55323157559795       2.60265399656844      -1.61879235063600
H         0.96143704074724       1.83418185565499       1.48526305598250
H        -0.36591359072498       2.32030873965608       0.39000537006720
H        -1.04498970665487       0.92126038069868      -1.41493016136658
H        -0.21888139555294      -0.62380121275861      -1.74004474273006
H         2.09068310329224      -0.16789712523706       1.16056398638668
H         0.66332692431369      -1.18638156563141       1.04621504153900
H         1.73517284132427       0.62898088467315      -1.94041770662889
H         0.81563258636635       2.10312379749917      -1.55693204901837
H        -0.39991881199685       0.03384235338971       2.45213151279619
H        -1.23387503945698       1.57223958640181       2.56615023992511
H        -2.47154343015024      -0.95216419692493      -0.71582728356861
H        -1.21501226897182      -1.61539997810046       0.32699217226226
H        -2.76633142220053      -0.32107339407252       1.75022317949497
H        -2.68678105231887       1.06730232352103       0.65110396945739
H         1.42026805344484      -1.83848566087792      -1.35241050873846
H         2.94913859565733      -0.99803344214761      -0.98994014372324
H         2.45275031064430       2.69763197526635       0.23750114679608
H         3.32919564505738       1.18436634035283      -0.01682396146164
H         3.16842974001937      -3.41160811546015      -0.48285000588066
H         1.77101698705228      -3.34619106105843       0.61958603294134
H         3.27528695193226      -2.47076864807056       1.02482835978664
H         4.43732744927119       3.08158835022600      -1.17480132891935
H         2.98152270038594       3.37437315918122      -2.15915741670186
H         3.90574800440188       1.85914584874681      -2.35158250570152
N         4.42008735378568       1.70405432341751       2.59147734657994
S         2.99723307031874       1.80719055704374       3.30712927075354
S         5.21921183948269       0.30716509941667       2.54102275506367
F         3.37150697879636       1.96171141046115       4.89805731755513
F         4.61082583045948      -0.33198092489382       1.08238923118066
O         2.40497819239547       3.08541446757895       2.94037621073142
O         2.14671335953823       0.61861200209940       3.26072420003771
O         4.84597738789080      -0.70322256098080       3.51111875956152
O         6.59990255732305       0.58100888835244       2.21203148183030
