52
C14H23F6N3O4S2 optimized with ADF in AMS.
N         0.22302960319768       2.19226039189938       0.04672396344512
N        -1.73847534758541       1.33089746883478       0.41465952753176
C         1.55581042374438       2.41153244625641      -0.53424237539650
C         2.61171847849157       1.56534490204976       0.17413317776712
C        -2.96618908971558       0.53586334845162       0.24321201611021
C         2.37192966236629       0.06272822246207       0.04534244915716
C        -2.77818134855293      -0.93319020551812       0.60886054537664
C        -0.73385594651326       1.40833376484689      -0.47237347830682
C        -0.17572028550642       2.61449361576922       1.29657794233414
C        -1.40477283504514       2.07102299008451       1.53027235139137
C         3.32213428379456      -0.75999289102213       0.91773772948933
C        -1.81940011475971      -1.69419494346099      -0.30299051211842
C         3.14142093835581      -2.26494365417890       0.73319691045755
C        -1.76039492138402      -3.18020094400373       0.04696530796193
H         1.77055246919182       3.48745640102044      -0.45015724606174
H         1.48327402838125       2.15991214581601      -1.60363124301867
H         3.59204900498747       1.83840593386993      -0.25418917680095
H         2.63142222106024       1.83844468050030       1.24192588651773
H        -3.72518275589865       1.00610494969920       0.88375374200832
H        -3.28314871051773       0.65729574359607      -0.80479995959785
H         2.46750008846804      -0.24382583158176      -1.01499709723104
H         1.34083982648951      -0.16892243989482       0.36026704488037
H        -3.78029106331740      -1.39737990564605       0.56161292420915
H        -2.44361782275438      -0.99307958315886       1.65731457893823
H        -0.69809996307432       0.91598700218403      -1.43481226096975
H         0.44790725902382       3.22018293381919       1.94111192363137
H        -2.02911226361297       2.10580652139104       2.41421145787982
H         3.14196080305469      -0.48785717232552       1.97131366581863
H         4.36659630499942      -0.47915303734405       0.68791011737480
H        -2.12917529083069      -1.56996227787798      -1.35921103610817
H        -0.80474511802454      -1.27122013940194      -0.20883351487865
H         3.37034807247247      -2.57232402205252      -0.30046665589041
H         2.10734151306465      -2.56668999562184       0.95709848569846
H         3.80273431604860      -2.82832650990536       1.40884189009340
H        -1.43500315490137      -3.32060862953989       1.08777672406590
H        -1.05358700219869      -3.71484082992736      -0.60481035405156
H        -2.75035753104000      -3.65042529772525      -0.06501206288743
N         0.25139478147734       0.31586273322394       5.20132271731999
S         0.88839874022530       1.55093915445633       4.40754752108472
S        -0.79718945712370      -0.69482885057097       4.55033161689707
C         2.22082546695056       1.96091600028980       5.67202995315909
C         0.24366233444719      -1.85771680893405       3.46041297932494
O         1.63508298516550       1.18066021835983       3.19565759296478
O         0.04796900426750       2.75054186706845       4.32855648795944
O        -1.72348604407809      -0.08739185781449       3.58479891238941
O        -1.30885145217841      -1.56852039656202       5.59031174920758
F         2.94128445894221       3.00209539740916       5.17604539563107
F         3.05198503826905       0.91385216831972       5.85807229555811
F         1.69623561948599       2.32777606617646       6.85785536194198
F        -0.34603028811283      -3.07885915768608       3.39423136746796
F         1.49499453209274      -2.01346743283414       3.93714968114955
F         0.32035488071060      -1.37379350226574       2.18944867172372
