41
C11H24BF4N optimized with ForceField in AMS.
N         2.00103272720655       0.44443199748512       0.09240763983022
C         2.25174311652606      -0.86044681894437       0.76464063498112
C         3.10846122387023       0.60661301919075      -0.89762756201731
C         0.69165765826513       0.44691370654459      -0.62960929623872
C         3.67421869655695      -1.27827527899503       0.45074261366972
C         3.93116182008391      -0.67011852076702      -0.90106347034243
C         2.05745432744895       1.55277455419226       1.08004139642047
C        -0.54929963084227       0.25936703116985       0.27431884661787
C        -1.81366827072731       0.10128434522681      -0.58002416167632
C        -3.05854243255598      -0.09480886066622       0.29255450106977
C        -4.31678901530261      -0.21083125995530      -0.57602319819239
C        -5.56519958972421      -0.39890281964122       0.28014368011251
H         1.58322053016453      -1.66117884903734       0.37282802206272
H         2.09776377067312      -0.82036781102384       1.86748005105699
H         3.78995957958808       1.45201340055893      -0.64195169153353
H         2.74947705706361       0.81434151683254      -1.93202636155267
H         0.69232175154610      -0.36176610948419      -1.39743207123994
H         0.56880486703310       1.40699075522916      -1.18267711968775
H         3.78675144100456      -2.38441222412915       0.42992632707087
H         4.37154812792554      -0.84352238675934       1.20062198440075
H         5.01027110162148      -0.46566550069231      -1.06051481751193
H         3.56086189425869      -1.35495038924805      -1.69627047507019
H         1.33303442211460       1.40218185258705       1.90863477340038
H         3.06428318819331       1.61597041175694       1.55055235890459
H         1.83913078330158       2.52928401090946       0.59212674730233
H        -0.43463820082270      -0.63775743842028       0.91826784151845
H        -0.67956323962999       1.14879440510320       0.92619499211161
H        -1.69876989873389      -0.77798288467852      -1.25177627885449
H        -1.94451210570242       1.00995727953647      -1.20822627955670
H        -3.16602606913842       0.76976945180473       0.98389760754688
H        -2.94137736640786      -1.02029528786476       0.89832750285249
H        -4.43668169824857       0.71066219837569      -1.18662606855801
H        -4.21874305618801      -1.07844569352015      -1.26441989863642
H        -5.69958328743850       0.46769415926388       0.96191981088647
H        -6.45684860834357      -0.47487810303011      -0.37759894752433
H        -5.48516944499360      -1.33040019623448       0.87993809829515
B         8.54422080283583       0.50494844435326      -0.11607512218473
F         9.81388791880437      -0.10435795486178      -0.29913682219121
F         7.52877786154789      -0.38226995193461      -0.55811981379959
F         8.48292477903787       1.70834392460893      -0.86811797096295
F         8.35184350032789       0.79621516875848       1.26063800912027
