40
C12H25NO2 optimized with ForceField in AMS.
N        -1.43462910104345       0.38820259415022      -0.06639535250040
C        -1.73740117824004      -0.88574115470618      -0.78282764043080
C        -2.52210628984033       0.54728426485041       0.93657955416762
C        -0.11939982825143       0.32535665491938       0.64101939591413
C        -3.04300926801042      -1.44832658537666      -0.23412363413639
C        -3.69557122106199      -0.28860008887765       0.47078703603043
C        -1.47569916825241       1.53905096215686      -1.00606974848757
C         1.11153846463778       0.28217629298977      -0.29454590161070
C         2.37143673317449      -0.11272181256428       0.48602158644944
C         3.61218330028134      -0.09142769746160      -0.41295497044319
C         4.86036361142314      -0.49448350642016       0.36709923681572
H        -0.94263849285446      -1.65427889205719      -0.65324469160936
H        -1.85110596832549      -0.73376742869584      -1.88154012265433
H        -2.83068341659560       1.60839700401923       1.08232859133491
H        -2.21942115693118       0.16256679912437       1.93926949550438
H        -0.09745386506840      -0.57411924116958       1.30005774320259
H        -0.00742301054425       1.20968125257875       1.31047295728480
H        -2.82374372738648      -2.25339210611532       0.50284311931756
H        -3.69271129047659      -1.85400452836890      -1.03958929330484
H        -4.31370925815300       0.29258253693789      -0.24842662362714
H        -4.32760136460765      -0.62588717745396       1.32119289099346
H        -0.78684283317447       1.38723665772016      -1.86535445105497
H        -2.49682155762989       1.67249215119949      -1.42889319730698
H        -1.18949842759492       2.48355250074101      -0.49124074011203
H         0.95699111394650      -0.44408087942432      -1.12023962883694
H         1.27003209641583       1.28865329620249      -0.73935713053440
H         2.23834277381734      -1.13647298460969       0.90110818031337
H         2.51751079017613       0.59568090543003       1.33129677356454
H         3.75959088170937       0.93104018190726      -0.82437459281542
H         3.47334930477403      -0.79707287865896      -1.26044260070846
H         5.02929038318424       0.20513820998654       1.21348938449789
H         5.74510052031618      -0.46171300356709      -0.30285807528433
H         4.75137330034894      -1.52731057156919       0.76157550249336
C         1.94791610562967      -3.95034208195615      -2.93834039838296
C         3.29205680553103      -3.54767193580150      -3.45749744396760
O         4.13484427006155      -4.39876200151836      -3.69122008611366
O         3.54972120671547      -2.37059249246910      -3.65175138929194
H         1.43773552629369      -4.59336022488912      -3.68627109750709
H         2.06756520500362      -4.51782571595085      -1.99155080795127
H         1.31797967550209      -3.05594517253222      -2.74281704691143
