28
C8H17NO2 optimized with ForceField in AMS.
N         0.59062006578071      -0.01916023014242       0.03182567632114
C        -0.26785696032609       1.07025008195335      -0.50911989261228
C        -0.33149122945960      -1.07721248274822       0.52678621094201
C        -1.70685360677019       0.75892294988252      -0.13691370041878
C        -1.73078252529963      -0.73605301109180       0.04814739721852
C         1.43406153798582       0.49034250159004       1.13939418429514
C         1.47179182740848      -0.55964773964313      -1.03116713143999
H        -0.20872065128048       1.13700125926640      -1.62071958663757
H         0.00870455953121       2.07761612469487      -0.12064874500476
H        -0.35351848663182      -1.12531028032780       1.64060522966217
H        -0.05428954473303      -2.09676833914646       0.17602803548032
H        -2.41802333836393       1.08133304214360      -0.92840013610632
H        -1.96407158239985       1.25964453730396       0.82258816753524
H        -2.50553746460035      -1.04199812027745       0.78454135635273
H        -1.92615945957790      -1.23229747474974      -0.92810018214098
H         2.12655041939952       1.28410322386343       0.77932532434937
H         0.80582838802436       0.92807069120179       1.94782629171410
H         2.04517566619199      -0.32826846588432       1.58135019967136
H         0.87135388656391      -0.97667236003285      -1.87095132500092
H         2.13291338794782       0.23675728741830      -1.44082408864618
H         2.11752072191940      -1.37609979368084      -0.63632535151418
C         1.23958077066157      -4.87358782059500      -0.51533891921482
C         2.13451695334050      -5.73113343326674      -1.35332933043929
O         2.65157847758434      -6.72584848409921      -0.87167017640741
O         2.34889421248030      -5.44145909370605      -2.51936489078917
H         0.36180160315407      -5.46538444273525      -0.18112614108533
H         1.79401756856224      -4.50983795351815       0.37515070777643
H         0.88224791650666      -3.99826323537285      -1.09801168326054
