34
C12H19NO2 optimized with ForceField in AMS.
N         1.73085661456499      -0.02315080883279      -0.45405656248402
C        -0.65535128971390      -0.00766084972058       0.13708694808253
C        -2.09028156717629      -0.03031873605626      -0.40072626138444
C         0.36867363951591      -0.06467143815432      -0.99988554029566
C        -3.10056798660887       0.02595348433752       0.75047168133097
C        -4.53373362573813       0.01614650243331       0.22904986740696
C         2.36429902535625      -1.18857567877292      -0.11762493557668
C         2.35168081725704       1.18202696125335      -0.26760558178928
C         3.65794873002692      -1.16608576450870       0.40912671954679
C         3.64395436209363       1.23992298233021       0.25998398265671
C         4.29921101222569       0.05698361841835       0.59742434980677
H        -0.49941382541141      -0.87886374165255       0.81067590989417
H        -0.49588094367129       0.92358887689630       0.72394236151985
H        -2.25156801569691      -0.96151813375608      -0.98784777465391
H        -2.24760315148929       0.84235061404198      -1.07272708030096
H         0.22080820159620      -0.99466557469768      -1.59327725662134
H         0.20831410465674       0.78897809033721      -1.69608556968756
H        -2.94040601550399       0.95228600193983       1.34453501981382
H        -2.95462075507208      -0.85033595107135       1.41938825650236
H        -4.71253869014596       0.89775240036142      -0.42273475420119
H        -5.23995779185193       0.05761559897178       1.08499667370739
H        -4.72756858221322      -0.91310723271973      -0.34788900575652
H         1.87026290136905      -2.14334629368780      -0.25477244110651
H         1.84671776566258       2.10689177340582      -0.52092754844096
H         4.15627246121966      -2.08990481337010       0.67258757788379
H         4.13047519436629       2.19507325728157       0.40918919994255
H         5.30040493295276       0.08832120514470       1.00828823124225
C         1.82317783075298      -0.80928886891612      -5.10184466206710
C         2.53174567131719      -1.14365921796649      -3.82756166997282
O         2.34577662498892      -2.22473643144357      -3.29326369361688
O         3.29700938136011      -0.34022521439606      -3.31927170434254
H         2.09715574397189      -1.54739350892108      -5.88465528542202
H         0.72569523398112      -0.84175403794810      -4.93803531648079
H         2.10418434885733       0.20668996663894      -5.45311507583570
