55
C15H20F18NP optimized with ForceField in AMS.
C         2.56638930410373       0.37452220579640       1.63654339085276
C         1.55001913590271       1.31188890983676       1.00890457445309
H         1.22739971550612      -0.87083053437646      -0.85257833213965
H         0.30652383886886      -1.66869340510840       0.46453627426196
H         3.11101315102849      -1.28393354562276       0.34379804291014
H         2.16363874501398      -1.74764199556209       1.81483489551821
H         2.41643439471399       0.33316211353386       2.73773402477634
H         3.60450948180199       0.70856267929744       1.42492439147690
H         1.26757274669155       2.12584313977665       1.71583923851934
H         2.04282857239898       1.79513320967284       0.13187891081874
H        -1.34144853820438      -0.39442591737332       1.52185534816182
C        -0.54727743039493       0.35301845107636       1.73398775573496
H        -0.01781568899025      -0.00044228340984       2.64625592895574
H        -1.03304401892113       1.32499354429026       1.97402218294892
C        -0.27551213714173       1.17164521096465      -0.57810782244944
H        -0.43268157150158       2.24700790434124      -0.32920436455650
H         0.39716966097889       1.16999294349993      -1.46621114627130
H        -2.39311571083068       0.67317112320612      -0.17878634284065
H        -2.90275663383620      -2.12506991625135      -2.74963827378140
C        -1.63170747488650      -0.77615436066651      -1.62490541198168
H        -0.79298921200126      -0.86164355254437      -2.34912511151268
H        -1.50273888105408      -1.53207899793434      -0.82602015012560
C        -2.93820856425702      -1.08973625576012      -2.34979635030633
H        -3.08840014982054      -0.38835421539189      -3.19810242686309
N         0.38583160021401       0.49664705993324       0.58554877216979
C         0.98128057674613      -0.81608971097244       0.23205756409378
C         2.28106162992169      -0.97932990171732       1.01915833104298
H        -3.79699919109488      -1.00831045064358      -1.64954855919624
C        -1.66185841857919       0.63085402331928      -1.01245855693389
H        -2.04447629132404       1.33402351430797      -1.78528320106857
P         8.53008548703152       2.00944620733848       1.29078390592530
F         7.14718875423093       2.78864322813801       1.96490598962550
F         9.01114504792427       2.85398720503636      -0.13199947655157
F         8.19932577940507       1.31713218297598       2.83063724974068
C         9.39178871371029       3.61013976766601       1.95054912412766
C         7.05388244725501       1.45503703303972       0.16906611443428
C         9.69616555372641       0.48484668891562       1.20187280058408
C         9.48108334977660       3.74442470028233       3.48626641271545
C         7.39076815773735       0.63109383550143      -1.09942140372784
C        10.86647135037085       0.41787218369470       2.20053180330165
F         8.69152127249225       4.72079537747520       1.49363682131578
F        10.67741359751595       3.71215506514243       1.44257628880288
F         6.36122135214193       2.57752148404411      -0.27512542805008
F         6.18491927294729       0.69041680829684       0.93162971534769
F        10.24170069340548       0.43263019322036      -0.06826541067131
F         8.94780315096102      -0.66447864771714       1.39701944450410
F        10.05311877864328       4.96553094311256       3.79660592820070
F        10.27109864072975       2.75711375035345       4.03261679858350
F         8.22985021039045       3.69901000757348       4.07318025271299
F         6.24873654961246       0.52778995191929      -1.87459918982417
F         8.36663736496200       1.23368894172221      -1.87003685199024
F         7.78609621561485      -0.65275063258910      -0.78510379465205
F        11.66797509593355       1.53570694473194       2.12119602675167
F        11.64979384898385      -0.67992053364691       1.89029503819245
F        10.41154787444483       0.25113805785439       3.49544742363247
