50
C14H28F3NO3S optimized with ForceField in AMS.
N        -0.69641873379921       0.54106765557480      -0.19741438556267
C        -1.67405052153067       0.28749798992412      -1.30596084991045
C        -1.24726590590558       1.61983498821669       0.68730706697201
C         0.56293014345524       1.04694974066745      -0.84659416313833
C        -0.44099170426534      -0.69630685913709       0.62097041878969
C        -3.09006158271336      -0.06952942690506      -0.82517203560588
C        -2.66812053593209       1.33343168119576       1.21690132829407
C        -3.63953541542797       1.02861829960438       0.07964372795684
C         1.76289075197320       1.29301775173103       0.10183224908425
C         0.21625276679561      -1.87665153957049      -0.13365350275793
C         2.96673623537689       1.83420584805834      -0.68217388311700
C         0.43065643367225      -3.06751612528125       0.80974003550010
C         4.17504646264225       2.04152052178364       0.22668041190805
C         1.06091898207530      -4.24547061313522       0.07444904134604
H        -1.31747537073190      -0.50791484039145      -1.99237569067105
H        -1.77061875611586       1.19744151384324      -1.94398458654626
H        -1.28462238618205       2.59072118453065       0.14131035341379
H        -0.59747439746563       1.77754185021971       1.57478905108498
H         0.35575788929661       2.00633450308516      -1.37568049315319
H         0.89262719598988       0.34784638956471      -1.64742659025021
H        -1.38117354313918      -1.08113756513595       1.06065073626824
H         0.18945008864791      -0.44822444278175       1.50293325273697
H        -3.10551900690348      -1.04961987022639      -0.30566432327066
H        -3.75560394372114      -0.16753991919906      -1.71019851766095
H        -3.03395752507659       2.22844270588353       1.76544304645125
H        -2.65957559319958       0.49703982851022       1.94633384618039
H        -3.81019908499662       1.95085562751112      -0.51840890995450
H        -4.61603070071080       0.70685880285291       0.50136327641915
H         2.07284833225183       0.34831866925698       0.59326275960762
H         1.49670055342138       2.03329507626292       0.88343121978302
H         1.20318981585107      -1.58153268122744      -0.54424814185808
H        -0.43299165161582      -2.21452286635893      -0.96607910622169
H         2.70153149994486       2.80575633729224      -1.15338152131740
H         3.24460192853911       1.11811038071010      -1.48621655855565
H        -0.54428717918491      -3.39245053681797       1.23450546704741
H         1.09757150403826      -2.76785131867616       1.64749510870880
H         4.48229014071762       1.07786354293088       0.68615896631127
H         3.93489113753690       2.77153336641479       1.02866747902387
H         5.02468165323003       2.43585950331511      -0.36991928148941
H         2.03206489863815      -3.94460759016221      -0.37113477070533
H         0.38636918141895      -4.60336144487651      -0.73202220975862
H         1.23524843396180      -5.07730596423949       0.78864243640283
S         4.61692523256561      -6.20707162970543       1.10810065887725
O         3.32926057642466      -6.95863674236878       0.73928887306426
O         4.36215869297680      -4.79085536463632       0.57301534331312
O         5.64597601424213      -6.77120201991624       0.11757630802884
C         5.09528560877178      -6.29369930298481       2.85662437355963
F         5.34777416967183      -7.60784962403877       3.20137182172586
F         4.06925637765811      -5.80077076892457       3.64041976284817
F         6.23381580823171      -5.53728796954314       3.06003552849752
