29
C9H16N2O2 optimized with ForceField in AMS.
N         1.12452738678129       0.36112616248804      -0.37115917147209
N        -1.09915533379929       0.35934718202263      -0.39543767828245
C         0.01828543235253      -0.23862478313372      -0.85301856573947
C         2.51044830301596      -0.03479997410112      -0.60824564859515
C        -2.47913325386190      -0.03464412993031      -0.66802397470020
C         0.69324812202551       1.37618437935909       0.40534468541851
C        -0.68649668612209       1.37508174167941       0.39030173427514
C         3.10550026265747      -0.66009471065343       0.64817069319971
C        -3.11006918202999      -0.65275229344905       0.57482744839683
H         0.02598014915484      -1.10647481625777      -1.50145958743873
H         2.55859471111973      -0.77517746772477      -1.43657020723920
H         3.10768958284502       0.85397284003004      -0.90413301459704
H        -3.06467216606053       0.85465463827128      -0.98642020788889
H        -2.50660775713367      -0.77974857803670      -1.49308901937363
H         1.33259726467248       2.06010990268966       0.94849205288286
H        -1.33867086415630       2.05818135919910       0.91914765763900
H         3.09949516117504       0.07221402814344       1.48304576285535
H         4.15317271572663      -0.97019507311035       0.45125776345847
H         2.51523236092084      -1.55397129596728       0.94280367764094
H        -2.52998284654236      -1.54639050238125       0.88986833829928
H        -4.15246892893004      -0.96239615583808       0.35077050174528
H        -3.12589219251130       0.08318693740720       1.40635106643627
C         4.59891527493657       3.50669144716251      -3.37936750777413
C         3.10884679084102       3.63608724184901      -3.33610875006100
O         2.44114118944082       2.80277754844760      -2.74582568639387
O         2.55620616106886       4.57341888193039      -3.88887917826882
H         5.00698451206975       3.55044904301259      -2.34775044082695
H         4.87667488879734       2.53601599216205      -3.84153270185138
H         5.04636257814578       4.32952053942979      -3.97745442964462
