44
C12H24F3NO3S optimized with ForceField in AMS.
N        -0.55297985825303       0.09244518332044      -0.09688742589437
C        -1.54319596099541       0.54421582679054      -1.12842989157855
C        -0.90439154660462      -1.30227178319117       0.32742414290943
C         0.78568819527975       0.06606121395583      -0.77971996504792
C        -0.54315166782600       0.99620451223810       1.10634318962325
C        -3.00723108628228       0.46226382725834      -0.66847593376003
C        -2.36089058539165      -1.46082184615310       0.81042079687411
C        -3.34956324477970      -0.96079819106808      -0.23875115880830
C         1.99746994391550      -0.30451942155260       0.10870428957796
C        -0.14143755689604       2.45794162871290       0.84180905235457
C         3.28144636556497      -0.33654888080415      -0.73135750196766
C         4.49118377674481      -0.72139932802821       0.11434161669441
H        -1.45809837211849      -0.08966775530340      -2.04253691129307
H        -1.33086722706070       1.57742304515952      -1.47421217834423
H        -0.24936420883113      -1.64421230393639       1.15705011802332
H        -0.75378105851555      -2.01529608080618      -0.51608451082104
H         0.99606992377405       1.04938934763086      -1.24998015385526
H         0.76212720973505      -0.65699895240980      -1.62815319189823
H        -1.53714531569484       1.03246149691313       1.59134210659483
H         0.12895749808489       0.59037709648559       1.89295028057253
H        -3.66666532206828       0.74819820596567      -1.51642624268420
H        -3.21133711696208       1.17967740007652       0.15266449426638
H        -2.52227116068834      -0.93012158973434       1.77158489636048
H        -2.56071391948976      -2.53641057950899       1.00643464575329
H        -4.37953415249723      -0.98592400177431       0.17722316872224
H        -3.31867221928098      -1.63323468644429      -1.12447197675087
H         1.85557069332288      -1.30506766579643       0.56514896446839
H         2.13435498107340       0.44508776038744       0.91505361359673
H        -0.16437781113764       3.01129752719904       1.80460399216524
H         0.88765102209107       2.54143417878162       0.44097332781907
H        -0.85867225385518       2.96342270881503       0.16555152012268
H         3.46089381556346       0.66530807275734      -1.17966143451202
H         3.17341891299814      -1.07558516940304      -1.55515491053585
H         4.35015260726321      -1.73330632542796       0.55036285535645
H         4.64053946764967       0.01509567858249       0.93221444252187
H         5.39978343381308      -0.73360926857179      -0.52397568893841
S         3.12270368661247       5.28975283702383      -2.21712328577658
O         3.63413849830342       5.05417537974596      -0.78858645235004
O         4.26653970698635       4.75141421696710      -3.08869473894945
O         3.24497076411604       6.81118508185723      -2.38427866945986
C         1.48411284278063       4.59920902001119      -2.57787779304898
F         0.54741547670334       5.16257568831280      -1.73339153172193
F         1.51054618291277       3.23316679568578      -2.38800187814668
F         1.14520344434001       4.87190419777994      -3.88868443913368
