35
C9H20BF4N optimized with DFTB in AMS.
N         0.12415917668552       0.19127242352560       0.33217653538076
C        -0.95113246823565       0.95960408419771      -0.37761660782037
C        -0.18410446914170      -1.27778295281380       0.25580134375977
C         1.41321217123418       0.47142930508159      -0.39434331305825
C        -2.34869716678295       0.65899605908071       0.15534670164212
C        -1.56374677501990      -1.61806060773514       0.79800699266005
C        -2.65144982956477      -0.83689817361820       0.06845470069337
C         0.24354360027895       0.65711044392971       1.74110849525230
C         2.64510264996434      -0.23918079660396       0.16581253392424
C         3.86353162712311       0.12494529331073      -0.68059375824396
H        -0.89416705086222       0.68724388748944      -1.43566600077809
H        -0.71773531786954       2.02236398867665      -0.27412726244877
H         0.57219998689246      -1.80674271580694       0.83486748807787
H        -0.10462653771313      -1.56000099666126      -0.79830476323755
H         1.56068415744731       1.55540388053222      -0.36258220251104
H         1.25848875680768       0.17522538376935      -1.43620603558325
H        -3.05884568192654       1.22578414880308      -0.45293895651096
H        -2.44637114833897       1.00324262874360       1.18789351333878
H        -1.60255033421827      -1.42258230828815       1.87126273100377
H        -1.70260908027247      -2.69259423830590       0.65950895588374
H        -3.62509746078678      -1.03937698663051       0.52019084853169
H        -2.69278395864773      -1.14098499346153      -0.98319986656036
H         1.01203292585628       0.07284369956765       2.24080678212456
H         0.50036034899767       1.71515320830631       1.73881061885843
H        -0.69543320369491       0.49712292218740       2.26135169101130
H         2.82238575452632       0.05573540569952       1.20110797979339
H         2.50339010623154      -1.32085239728246       0.15228813238055
H         3.72299228958340      -0.18782907771665      -1.71622660541991
H         4.03977686501756       1.20139663538676      -0.66178865593254
H         4.74346948158593      -0.37822360347285      -0.28217665786453
B         0.82238139368983      -2.42309307254424       3.17272554260700
F        -0.14156637314091      -1.42819753328942       3.48795372491037
F         0.23220408526432      -3.32421022391452       2.27335621238055
F         1.30373217849169      -3.03203360075318       4.29194964406070
F         1.87366981883836      -1.74665507348931       2.46326864059427
