43
C13H27NO2 optimized with ADF in AMS.
N         0.12129466738967       0.19623413955399      -0.44605264192312
C         0.08535752606181       0.78439175094689       0.96066178796909
C        -1.27834178512339       0.13949787900522      -1.01662362085124
C         0.76418171766388      -1.17993590877892      -0.37190947599182
C         0.92654136757204       1.12592005449199      -1.34122690828477
C        -0.90336974552197       0.07011823676238       1.86810841317334
C        -2.25276381039070      -0.61728631611529      -0.12952429274828
C        -2.30676514953370      -0.00301708053590       1.26933989801725
C         0.94341579023544      -1.89412246113927      -1.69977662568667
C         2.39861702332929       1.25838620831309      -1.00236549108412
C         1.73667046560959      -3.18086260246606      -1.44639394783923
C         3.05191869277195       2.27871728055000      -1.93143119369556
H         1.12324486378770       0.69133837391941       1.35842208145950
H        -0.20445872913149       1.84114011375210       0.82911487787720
H        -1.60159947655347       1.18796539605458      -1.12824407377440
H        -1.20012142356144      -0.30672924496097      -2.01815799830249
H         1.76441257217184      -1.04597758114004       0.10111944448812
H         0.14021194511842      -1.77977999489568       0.30308281474264
H         0.78799590801036       0.75447089171116      -2.36912831403097
H         0.41832266067161       2.10290318814595      -1.26882274566376
H        -0.52919885402728      -0.93842930987179       2.10967782662946
H        -0.90972077814153       0.62284998324260       2.82183265065598
H        -3.24150174222550      -0.58127484827395      -0.61717759287212
H        -1.96802611651666      -1.68160234991705      -0.07260553159523
H        -2.98129779753529      -0.58495677371544       1.91866423816071
H        -2.72744498462263       1.01753069625916       1.19624478408722
H        -0.02015170615730      -2.13055429610614      -2.18632728872539
H         1.52092238060438      -1.26295492967046      -2.39507776526169
H         2.52965426255590       1.55505222488585       0.04973570679140
H         2.90997161605634       0.28549101084555      -1.07400570146352
H         1.95691872452376      -3.69567848478214      -2.39297374455276
H         1.17074421446357      -3.87456546771547      -0.80413631933207
H         2.68060335722734      -2.93549902543528      -0.93537239237388
H         4.12186760381253       2.36767644105285      -1.69357234089571
H         2.59904287929921       3.27803996407758      -1.82102882349373
H         2.96768214886680       1.98030291500301      -2.98967214330014
C         4.86473174498774      -0.92035745549782       2.46144011806920
C         3.67144735769630      -0.61868845375188       1.54885732575893
O         3.61250987767753      -1.25206909519287       0.44926990446182
O         2.82912845144264       0.22870919523980       1.98463457423179
H         5.21362772506002      -0.00194322712727       2.95454942466552
H         4.53401315170653      -1.61227974257228       3.25285752375585
H         5.68294561236815      -1.39606817805120       1.90388427874768
