23
C7H13ClN2 optimized with ADF in AMS.
N         1.17329892949069       0.52443702737413      -0.48796817393545
N        -0.99941020843928       0.38718451777776      -0.54098136886567
C         0.13800527082437      -0.15112719265851      -1.03127568099444
C         2.58042123321399       0.16762506090329      -0.67648126215451
C        -2.34012459420153      -0.14178893027164      -0.79880550229940
C         0.68512037199719       1.39518429341998       0.47307301017881
C        -0.67177098661288       1.30930031200294       0.44003548325849
C         3.12260840728674      -0.61332681063530       0.51159562581095
C        -2.84497996568500      -0.98364682100126       0.36412487936616
H         0.20068181586807      -0.81302176900083      -1.88228395035358
H         2.62553819142268      -0.44125718123023      -1.59071574942843
H         3.13742807373707       1.10115730429305      -0.85862509964034
H        -2.99807627438212       0.71531098783168      -1.01610269913162
H        -2.26223367281757      -0.75292675639229      -1.70949123743083
H         1.34255906588773       2.00386329689743       1.08044094180014
H        -1.42913222537759       1.82776890523659       1.01372307653628
H         3.10752971984079      -0.00324779606978       1.42697145690345
H         4.16290684281036      -0.90795647047497       0.30874174252975
H         2.50056978956368      -1.51157609675547       0.66042396429901
H        -2.13090710967943      -1.80355299158850       0.54669245440208
H        -3.83252005238972      -1.39665046697176       0.11102430639225
H        -2.94634037415402      -0.37816307825426       1.27736211653459
Cl        0.25624666199579      -2.57696807063206      -0.10839564057768
