34
C10H18F3NO2 optimized with ForceField in AMS.
N        -0.01185571546532      -0.00151146169387       0.00216335023160
C         0.89114108728844      -0.85615930997909      -0.82782576629076
C         0.90392645987664       0.85446399552431       0.81774561147599
C         2.30396835175869      -0.32271642245443      -0.70150309200464
C         2.32028030948781       0.33805539362590       0.64858831473301
C        -0.83996523859485      -0.85798569350653       0.91142989203003
C        -0.85536606289002       0.85290679568431      -0.89509070384413
C        -1.84269297200259      -1.77470864010780       0.18643649027805
C        -1.85862490786377       1.75825713078109      -0.15707217970563
H         0.59656946896619      -0.89530579497180      -1.90136481852937
H         0.91521480785666      -1.91221916314308      -0.47256731947178
H         0.63730927436780       0.87770532578587       1.89910356036253
H         0.90573291911497       1.91500722648950       0.47563928988701
H         2.49801279511625       0.43086973867159      -1.49634018603814
H         3.05592433268772      -1.13775651078059      -0.76714973613698
H         2.54669850728965      -0.41368591702623       1.43680941128540
H         3.06839593500137       1.15967408365410       0.69087777231728
H        -0.17587412356270      -1.50195478675174       1.53340068326030
H        -1.40709852371441      -0.23263332422871       1.63553007575415
H        -0.20237110499678       1.50442907917086      -1.52093604984015
H        -1.42568134538433       0.22650200142416      -1.61584587674767
H        -2.29177433729552      -2.47519997200870       0.92130700532310
H        -2.67020538830156      -1.18799139367262      -0.26148872853877
H        -1.35371768123603      -2.37614152355393      -0.60648458563124
H        -2.31741093318209       2.46069414307789      -0.88413238105268
H        -2.67978187103189       1.16277347837042       0.29119547620720
H        -1.36807817988456       2.35654056630009       0.63721490720814
C         5.82972758655477      -1.13068010717024       0.28077260916393
O         5.78835343822625      -0.21483976281181       1.08690342146721
O         5.85958796117211      -0.88142923798647      -0.91367411032484
C         5.84374395731388      -2.55610754464371       0.74749029692743
F         4.75052725321569      -3.22433024138018       0.22672610855836
F         5.79202323193631      -2.61538881434733       2.12967230853659
F         7.00334494177523      -3.17186277534123       0.31292471734951
