41
C13H24N2O2 optimized with ForceField in AMS.
N        -1.12331286589311      -1.74144038171561       0.25956715525683
N         1.09921214955553      -1.70620947821632       0.31986677789003
C        -2.51517632444972      -1.47122048454605       0.61494429115649
C         2.46152974912410      -1.40399874189352       0.75623851653712
C        -3.03623162249354      -0.22627570431320      -0.11569921516581
C         3.05522617989020      -0.23905945569533      -0.04836020395476
C        -0.03552440735959      -1.46423993502288       1.00436400535512
C        -0.66219661571815      -2.18326010712315      -0.92801547638331
C         0.71708155259617      -2.16512045045144      -0.88937628218564
C        -2.26730405676739       1.03849325540401       0.29289349360941
C         2.23393265622670       1.04851407071756       0.11405605726231
C        -2.83903984681485       2.27914740616884      -0.38358213432304
C         2.88813947615091       2.21902085592021      -0.61247515736762
H        -3.13995594826277      -2.34913453470262       0.34294735943438
H        -2.60677067508504      -1.32212377110239       1.71344216148266
H         2.46709943494042      -1.14403627863959       1.83790685777254
H         3.09653297950807      -2.30617259112570       0.62415163997586
H        -4.11267976321403      -0.09771729675173       0.13068432859218
H        -2.95123578378417      -0.37911431085022      -1.21389992388864
H         3.10509977976737      -0.51838373926048      -1.12341992788299
H         4.09359261395531      -0.06131931353806       0.30701068041495
H        -0.06969090346761      -1.03301672360974       1.99742752789016
H        -1.28114530865587      -2.46070246794641      -1.77136791648185
H         1.38903603880990      -2.42694095477974      -1.69631235206915
H        -2.31826983896588       1.17129075758417       1.39529435873578
H        -1.20122591556090       0.94211619121435      -0.00031256642859
H         1.21710585509465       0.90052827452650      -0.30692974903043
H         2.13606984602234       1.30158805513613       1.19215775181950
H        -3.87757481241253       2.46276476250199      -0.03546486589175
H        -2.83520208012543       2.15559275665426      -1.48732959394850
H        -2.21398514228796       3.15973033487653      -0.12658090279362
H         2.98370172928851       1.99531243685715      -1.69641364954672
H         3.89404289365982       2.42287131562730      -0.18809475069124
H         2.26061645199579       3.12735403668179      -0.49168100695925
C        -2.03724101124478       4.39777517297335       3.04533986818308
C        -2.58507368406248       5.23865512410201       1.93585128518273
O        -3.70920577855153       5.02859461721382       1.50989966872870
O        -1.91218861248345       6.13496638370001       1.45249089860725
H        -2.68045260576083       4.50216292866945       3.94412725706122
H        -2.01726222055692       3.33288558969081       2.73342455928293
H        -1.00420697050730       4.71438546826396       3.30411205506168
