61
C17H36F3NO3S optimized with DFTB in AMS.
N         0.64485626437392      -0.57798546019087       0.06495200739525
C         1.07974213004143      -1.79780057447238       0.83807236292907
C         0.00760574608979       0.38976568852220       1.03442594247370
C        -0.32252445133912      -0.99193602403608      -1.00629527317470
C         1.82425414685268       0.09573717177287      -0.58528943181277
C         2.26781880413770      -1.58207791803037       1.77459158312441
C        -0.61768247928210       1.63561893968736       0.41412684444617
C        -1.64168424001791      -1.57636702879354      -0.50448262676717
C         2.61925621159944      -0.76441630608036      -1.56293482728732
C         2.46505324590764      -2.82689853581857       2.64687403549527
C        -1.06659878766257       2.56604483191974       1.54903652418504
C        -2.50501582678096      -1.97943471783313      -1.70703109444730
C         3.85663695603899       0.02618225425998      -2.01145541311230
C         3.64792335067772      -2.63148912159450       3.59350737491502
C        -1.67628311939310       3.85012761151445       0.99318569809636
C        -3.84007104416696      -2.56466912837078      -1.25228062320766
C         4.69600241034840      -0.77894124349792      -3.00013439638031
H         1.31445111791685      -2.57850267532994       0.10940669991600
H         0.21447160865514      -2.12483652758699       1.41986560512444
H         0.79271857399345       0.69869000853926       1.72570705458390
H        -0.74506030547891      -0.16854017170081       1.59619736988090
H         0.18428543769092      -1.73518865888478      -1.62610127417385
H        -0.51662922761777      -0.10875209914580      -1.61955780830736
H         2.47160867407551       0.44015546886387       0.21969922679225
H         1.44478914359439       0.97715671367559      -1.10330528956090
H         2.10394777173078      -0.71858119917643       2.42133853049117
H         3.17989508521126      -1.40240317772501       1.20173534046878
H        -1.47549496121542       1.37900410047777      -0.21531239460642
H         0.11460651815175       2.16784845993806      -0.19566198753656
H        -2.18718534636552      -0.84367111941173       0.09431122148771
H        -1.45972660248267      -2.45658822965975       0.11755596987212
H         2.01721118736033      -1.01799884791668      -2.44078658299267
H         2.94275894332748      -1.69697345151783      -1.09359500841092
H         2.64148237180318      -3.70074870673528       2.00962883870213
H         1.55642449812961      -3.01403971536395       3.22940933870480
H        -0.19968943113666       2.81423515717245       2.16758432354748
H        -1.79932166726969       2.05006446575773       2.17909807890154
H        -1.96723681926514      -2.71815286765754      -2.31054382964004
H        -2.68543730837515      -1.10039132100712      -2.33434464288670
H         4.46142051671499       0.27551898415159      -1.13515946897447
H         3.53769848341341       0.96357085448578      -2.47767194124790
H         3.47699735672743      -1.77108430542828       4.24063439924220
H         4.56468557234823      -2.46334490566536       3.02766989068273
H         3.77797083373949      -3.51738198380459       4.21495095123692
H        -2.55108407450461       3.62937628382742       0.37882850128490
H        -0.94624613428622       4.38258507068690       0.38298130889537
H        -1.98146551852755       4.49874274551754       1.81402756641607
H        -4.39984766019443      -1.83202024789966      -0.66997211312055
H        -3.67969025115847      -3.45017309395731      -0.63617242616510
H        -4.43503502526956      -2.84756938555876      -2.12028039211972
H         4.11553735773252      -1.01931203618617      -3.89216957009598
H         5.03559502992621      -1.71007320831515      -2.54441690887044
H         5.56928651443017      -0.19972732402417      -3.29894836312103
S         2.80734014666579       2.53385526396297       2.14529942946934
O         2.92982806438738       3.78578429832675       2.83855461885832
O         2.25612540236204       2.61164070052340       0.79641589908461
O         2.25170157480888       1.43310292725086       2.92673149056513
C         4.54403240978853       1.95447737584960       1.83405264750793
F         5.23366964109968       1.79423594699157       2.95384310893004
F         5.21476223498837       2.77525647078003       1.03679115479150
F         4.49011997934895       0.75405799602185       1.21774488632153
