26
C8H12BF4N optimized with ADF in AMS.
N         0.50107388063614      -0.29486550434172      -0.63880509846209
C         1.57290378633571      -1.31125948040765      -0.86460501121903
C         2.21116193521772      -1.80117532381888       0.43071357399971
C         2.87012735536414      -0.68653129003570       1.23574610585959
C         0.54310232566330       0.86784243941913      -1.31801022802640
C        -0.48231412029890      -0.54214667679410       0.26005036024965
C        -0.43739252425653       1.83086851697134      -1.12365967639474
C        -1.47168212845018       0.38661881723730       0.49005857133531
C        -1.45313919515816       1.59557261961125      -0.21317407268810
H         1.11017867490391      -2.13555211177875      -1.43117608502041
H         2.32799481389159      -0.80376851704728      -1.48088256069710
H         2.96365678550282      -2.54713649289160       0.11977634596982
H         1.48011098857197      -2.36008322029311       1.04229090779532
H         3.62628902867130      -0.16840362251254       0.62947717934143
H         3.34878896124529      -1.09658804782554       2.13691684609604
H         2.14404529628001       0.08015273174601       1.54408391776497
H         1.37793140336657       1.01325923845135      -2.00122487582493
H        -0.43400185196239      -1.49795751461102       0.77510270054653
H        -0.33969356153329       2.76869220526321      -1.66979232832825
H        -2.24664687536996       0.16651735603078       1.22407794319061
H        -2.22275007926942       2.34754779462713      -0.03141232097119
B         3.14940934137758       2.38178100114891      -1.00617421809541
F         2.26055110596996       2.19631868764602       0.11240054997179
F         4.28850084594692       3.08107326284549      -0.62475595711850
F         2.41833335041281       3.03990283610783      -2.04009825971693
F         3.50213119934108       1.06318027235215      -1.49925023985769
