33
C9H15F3N2O3S optimized with ADF in AMS.
N        -0.72235509431754      -1.15283078939216       0.07447583215257
N         1.38765219797052      -0.63724880628716       0.11145600191092
C        -2.17906634100839      -1.11499994426009       0.30971307489917
C        -2.84876157235704      -0.05878886393438      -0.56151977210783
C         0.19181910663654      -0.37296872331055       0.66491237622875
C        -0.11111180683060      -1.92840207042242      -0.88781252242854
C         2.63652777167159       0.07465537172452       0.40308252521542
C         1.21588727023205      -1.60059270736344      -0.86388611105804
C        -2.38728470986416       1.36506094794673      -0.27982666925858
C         2.80212425816330       1.29776689658252      -0.48634436287067
H        -2.32591987153748      -0.91657520439878       1.38318774768653
H        -2.56126632155995      -2.11570732982940       0.05779000599859
H        -2.69796406403324      -0.33206733403713      -1.61735475447053
H        -3.93206794433338      -0.16765883560159      -0.39137935618695
H         0.00486930749704       0.34771577219463       1.45023814961819
H        -0.71514892491444      -2.66275690116954      -1.44365740803902
H         2.62147618670762       0.34374803714030       1.46961688559499
H         3.45453976127133      -0.64626206336922       0.25881899682875
H         2.05077451685511      -1.97899409863279      -1.44105443710192
H        -1.31949993655518       1.50375589051608      -0.51815742786393
H        -2.54765965972041       1.64383055264279       0.77559094771588
H        -2.94336919085002       2.08302042195202      -0.90065345400101
H         2.81189383631206       1.01223828145994      -1.54790531551274
H         3.75092490680281       1.80325116664187      -0.25419074977854
H         1.98083805011462       2.01148008443078      -0.32777227669419
S        -3.37622538695288      -3.55410863389254      -2.42369273313863
O        -2.12541320862899      -3.82531287953130      -1.65683391040288
O        -4.18278015469625      -2.45801066672279      -1.85824664425570
O        -4.08854465396797      -4.73992062466388      -2.89218995528676
C        -2.69034782892014      -2.80146506870310      -4.00707340878865
F        -1.86926852988574      -3.66718257281166      -4.66045427706331
F        -1.94384412470254      -1.67253246650899      -3.73479146796313
F        -3.67487874769828      -2.43160709248928      -4.86343712717820
