37
C11H23NO2 optimized with ADF in AMS.
N        -0.59935435540821       0.18210631589433       0.03408574539100
C        -0.89813585997113       1.55384532838648      -0.53403382956460
C        -1.40305595580247      -0.87071950076606      -0.71763715098234
C         0.88434827993372      -0.07498468370932      -0.17742749095989
C        -2.38166807355038       1.89019312801815      -0.54638033032078
C        -2.88796999001935      -0.55743620807875      -0.72403278713505
C        -3.18722650112095       0.82745621709732      -1.29451024583810
C        -0.90897711751881       0.13007923052706       1.50236372211795
C         1.40750723358842      -1.40164710475496       0.34038081948330
C         2.89882407148454      -1.52016207253866       0.03412246015203
H        -0.50305857443888       1.54754008879708      -1.56370275884548
H        -0.31942398816074       2.27742912276369       0.06130290695217
H        -1.20131815402942      -1.85894706662888      -0.22812103592447
H        -1.00194500223856      -0.86146360803814      -1.74655340064003
H         1.40109578078672       0.77021688603825       0.31022557202073
H         1.04428632798351       0.00973708067576      -1.26586905947906
H        -2.48961514069244       2.87868024548945      -1.02369517405185
H        -2.75671980801830       1.99913126058708       0.48494657250327
H        -3.29631423431061      -0.65895880762251       0.29573481573095
H        -3.37452437369101      -1.34621294444003      -1.32065489810737
H        -4.26405181036365       1.05606627025753      -1.23714133010040
H        -2.90781434532836       0.84766339173963      -2.36467542472001
H        -0.76006294016116      -0.91885120431194       1.87523563640384
H        -0.23502176057630       0.83497291985283       2.00969928206797
H        -1.94669039251995       0.44125051237078       1.65800823290642
H         1.22638947461388      -1.49798248002671       1.42165107609826
H         0.85197546736935      -2.24018413426143      -0.10813596204611
H         3.09665467787072      -1.48455650977944      -1.05008713959403
H         3.48013315379838      -0.71607686488431       0.51526235710774
H         3.28068077686621      -2.47982926628828       0.41185304492635
C        -1.13816004643370      -4.86735085350369       2.49166675861913
C        -0.87321265345568      -3.52107758858639       1.81026812882185
O        -0.52391403637772      -2.56307422735952       2.56829395047097
O        -1.01033603667132      -3.48738203084953       0.54659041558089
H        -1.86469128172538      -5.45653044255620       1.91500140259759
H        -0.19788917631784      -5.43964549943607       2.53702442405897
H        -1.48987546659312      -4.71495008067459       3.52130457139817
