35
C9H17F6N2P optimized with DFTB in AMS.
N        -0.39101857065086       1.09341986623724       0.10690881415444
N        -1.72883450331594       0.09845131335651      -1.25406789117993
C         0.46300781619682       1.35627313339293       1.25944442182876
C        -2.62645947042382      -0.89206859229032      -1.84004891188405
C        -1.02298249092615      -0.05147347663762      -0.13452032198032
C         1.93628853550349       1.19217027480632       0.88629788108603
C        -4.03300266260547      -0.79489072118345      -1.23356205805201
C        -0.72436576342207       2.00455816453744      -0.85404727419869
C        -1.57217614133708       1.37916867796439      -1.71194903816483
C         2.27992290876021      -0.24447258315350       0.49766462646375
C        -4.11900757371136      -1.43511064015605       0.14790462916802
H         0.16985564641550       0.66277269814954       2.05046832128888
H         0.25853660771706       2.37641893852171       1.59020638178309
H        -2.19409537350542      -1.88279407427556      -1.67148409318730
H        -2.66076355104585      -0.69923558061038      -2.91558986030884
H        -0.98080859325649      -0.93412627093863       0.47809270837348
H         2.17789803022587       1.86710096127626       0.05949289595998
H         2.53362043505097       1.49035157246994       1.75199290718626
H        -4.32171042950718       0.25707800924343      -1.17229597386009
H        -4.71924175796069      -1.30054050816120      -1.91956798192336
H        -0.35726246834179       3.01531157452249      -0.83438620736760
H        -2.07462645532916       1.73624663535657      -2.59339945185672
H         1.71034261899144      -0.55197476350894      -0.38073360761321
H         2.05166844307651      -0.92695143941564       1.31703954899291
H         3.34156096108223      -0.32197994738743       0.26553642549795
H        -3.45531948821806      -0.93042198308439       0.84680812691571
H        -3.85102127462474      -2.49197519711724       0.10157016563595
H        -5.13678207879883      -1.34551700452418       0.52497470478187
P        -3.22342690348341       1.85608213944353       2.08412911997767
F        -2.17846574884311       0.52419902070084       2.11679593080454
F        -2.97363481067612       2.07075390774232       3.67762192235624
F        -1.90851694717737       2.82433694737784       1.73907855701546
F        -4.21193490358592       3.14524144812846       2.00416603346724
F        -3.40623762123502       1.60460660734115       0.43849532114836
F        -4.47965484793821       0.84638155697559       2.36716384579036
