43
C13H27NO2 optimized with ADF in AMS.
N        -0.39782631569255      -0.69919915339078      -0.10986874274658
C        -0.31030534417280      -1.62020075122668      -1.32039478827330
C        -1.14949016884446      -1.53601561030375       0.94160899572798
C         0.99026333742831      -0.37232671436315       0.40116885867521
C        -1.61860766757831      -2.38875965369006      -1.30087252147322
C        -1.76155444600060      -2.72526340016292       0.18911123155059
C        -1.18500505076417       0.53744778544283      -0.47489112545329
C         1.83843253750267       0.43181646839768      -0.56611342636493
C        -1.25565116947984       1.58262171176050       0.62197540272209
C         3.26300840145330       0.55178641202843      -0.01963179396853
C         4.17984103836709       1.37218625380805      -0.92356629998450
C         5.60890916428439       1.44553412245119      -0.39078131321537
H        -0.12247443061383      -1.01950005458312      -2.21956805952197
H         0.52335158349170      -2.30640214067679      -1.08599821742326
H        -0.39129482225556      -1.89035563057963       1.68183829305022
H        -1.89730718180754      -0.88149341797341       1.40639162783977
H         0.86508725891290       0.14061601603282       1.36536155009642
H         1.43179552799316      -1.36895689878351       0.59169943531977
H        -2.46076721033380      -1.78128874074414      -1.67347162666545
H        -1.54977319380084      -3.28677102606201      -1.93238628409273
H        -1.15494595594463      -3.61590074659394       0.41557003569038
H        -2.80249291303134      -2.91307910919482       0.48955826654550
H        -2.19130173326971       0.18700654690549      -0.74517119339301
H        -0.71683475642855       0.95623208671678      -1.37790120084288
H         1.43026947444905       1.44411034705618      -0.73817686497902
H         1.88326079935469      -0.07567144556720      -1.54520159261960
H        -1.64349401641103       1.17327610200331       1.56508129074406
H        -0.27603741555414       2.03820215538115       0.81963682980261
H        -1.94009540552779       2.38220607808386       0.29992081112583
H         3.67783404263119      -0.46335077055219       0.11109651082001
H         3.23519785836316       1.00913694431819       0.98670344970637
H         4.18289375282492       0.92663817732812      -1.93522525117834
H         3.76880591614135       2.39279946346969      -1.03276250002682
H         6.25585333138178       2.04823883819464      -1.04708556402445
H         5.63055587967290       1.89744841062740       0.61389650094139
H         6.04764651962426       0.43811755824197      -0.31247829557070
C         2.24447298745646      -4.82433946860054       2.15763359466958
C         1.51337822435640      -3.57295246208121       1.65773032473588
O         0.94753664229976      -2.84907740275476       2.53138609152036
O         1.51973933635176      -3.37539904458910       0.39633418891356
H         2.46678366667103      -4.74673669818009       3.23061146342296
H         1.59423398995365      -5.70040927392700       2.00190910233026
H         3.16599808804563      -4.99333809956752       1.58238745896715
