51
C15H29BF4N2 optimized with ForceField in AMS.
N         3.07749561875964       0.92074368866426      -0.00121108527846
N         2.92740874526404      -1.29199848135451       0.18435679613527
C         1.46827228024536       2.77976458121586      -0.25476257426289
C         2.83873422718789       2.33549512424908       0.28008812444295
C         1.00316472227486      -2.60713812778357       1.01195613150050
C         2.50586967323027      -2.59912472276378       0.68904589970951
C         0.31389455468359       2.07217206263002       0.47006135645778
C         0.14536285474203      -2.28384082562507      -0.22077197389905
C        -1.04834979241806       2.52558041901960      -0.06429549094269
C        -1.34494509057446      -2.25898851841578       0.13386568487129
C         2.83227911800944      -0.11204683365732       0.82885927211701
C         3.34771495706090       0.37648765161070      -1.20444626183469
C         3.26326260424242      -0.99586597009144      -1.08758251719069
C        -2.18481460017757       1.82531509708562       0.69002887470304
C        -2.18480001883840      -1.76917288176990      -1.05171017026865
C        -3.54251807273502       2.14196918271902       0.07116273537392
C        -3.66431195027116      -1.69491508226035      -0.68467504353755
H         1.37166096963272       3.87784516251491      -0.10905722685470
H         1.41134557461280       2.57385291653370      -1.34619485869091
H         0.79797756040403      -1.86450111450372       1.81272437740799
H         0.72537331106714      -3.61048585734021       1.40225793504286
H         3.63552576928429       2.94388487752455      -0.19953219700285
H         2.89232873694379       2.51840312939108       1.37590501141389
H         3.08108035045972      -2.83854369902382       1.60889116734086
H         2.72559627817634      -3.38881050975188      -0.06292591249471
H         0.37668717920664       2.28492689258619       1.55975515915562
H         0.39836723943734       0.97553988786522       0.32119708425823
H         0.32670847806693      -3.04482556374217      -1.01085040521880
H         0.43341870608361      -1.28887950156956      -0.62210085462068
H        -1.15132594236718       3.62632558609695       0.05683373537770
H        -1.11323806859332       2.27941962599859      -1.14756215713267
H        -1.50514267462345      -1.57905889777868       0.99791454984672
H        -1.67157066106857      -3.28110165598428       0.42628230371063
H         2.49079684073760      -0.00219385647618       1.85084252108889
H         3.52189091342967       0.93671417644219      -2.11375216264025
H         3.35498480322013      -1.71673638760387      -1.88917751901124
H        -2.03033991050975       0.72776640554060       0.66462361672935
H        -2.18391817334488       2.14794922472268       1.75372296584896
H        -2.05802774762483      -2.46073759507630      -1.91252789090365
H        -1.84205912105505      -0.75796505427736      -1.36357419773287
H        -3.74039584326379       3.23371620496915       0.11424729494098
H        -3.57240170283848       1.80287912212040      -0.98633027801351
H        -4.34016434639463       1.61248396741537       0.63386307504010
H        -4.24349386935280      -1.30264876563195      -1.54687415909766
H        -3.81588586212750      -1.01604238783441       0.18104561690482
H        -4.04754185949845      -2.70462545953638      -0.42621741507581
B        -0.98992034576027      -2.55839890450156       4.69269221566073
F        -1.43886277983016      -3.76432111910189       5.29322213138210
F        -1.14411483711602      -1.48578445701866       5.61048086324642
F        -1.75758462590067      -2.29710361322462       3.52769753706371
F         0.37985354552127      -2.68697255741649       4.34153584213312
