43
C13H24F3NO2 optimized with ADF in AMS.
N         1.98907624404775       0.26576259335855       0.04932277668251
C         2.26368076678532      -1.09974005141597       0.66241709328268
C         3.08088899441067       0.39228614195364      -0.98869537051890
C         0.61920949885955       0.33556201466976      -0.58420336496910
C         3.78623307073601      -1.18192384972578       0.74556521710130
C         4.32643687924246      -0.19101739516121      -0.32124322713900
C         2.14479814782776       1.33862576008422       1.09029020181189
C        -0.52186985969893      -0.01567530407661       0.35503084628655
C        -1.87564134987426       0.14803184321939      -0.33754717230727
C        -3.03322683337232      -0.22723247105642       0.58792675078264
C        -4.40502824177655      -0.06437224305847      -0.06353292069191
C        -5.55097576702836      -0.43446376063513       0.87591262598363
H         1.83809859377502      -1.83331271755371      -0.04010819356656
H         1.75340168512289      -1.12854043541743       1.64124890997454
H         3.16360012033575       1.44327450446639      -1.29906357708851
H         2.76450780130676      -0.21816347958939      -1.84795714619171
H         0.64580879903007      -0.35879207839914      -1.44039114727328
H         0.51327655896751       1.36049440785757      -0.97734701568103
H         4.12077833145687      -2.21228665197093       0.56129205526376
H         4.09344322189297      -0.89336639550519       1.76253247937788
H         4.93040774198308       0.59978015920436       0.14681611031545
H         4.95934463796626      -0.68194910268200      -1.07439021464977
H         1.43362848732662       1.12499084130633       1.90184051336502
H         3.14738768849043       1.26646883645118       1.52511248030375
H         1.98226624135468       2.30929832430190       0.60288026260190
H        -0.41305483455884      -1.05442799390850       0.70508183059305
H        -0.48917591882283       0.60570444082138       1.26207135599451
H        -1.91570151891793      -0.48111405675361      -1.24709063038473
H        -2.00149042586020       1.19474394515481      -0.67288585291777
H        -2.98133594821597       0.39288792434515       1.50149016445414
H        -2.90570235162853      -1.27336729363047       0.92238711545634
H        -4.52491994255333       0.98172442308416      -0.40033783272764
H        -4.45239568618534      -0.69144416352159      -0.97292227314358
H        -5.53943454462781       0.19762463745812       1.77806811718125
H        -6.53013471989301      -0.30972740785500       0.38890572545468
H        -5.46760460410499      -1.48307538630445       1.20372012251631
C         1.85427692961257      -0.34593634948934       4.01774326625130
O         3.05626810833955      -0.19838381833756       3.70329386613632
O         0.81208187496356      -0.31376739915346       3.30170243535078
C         1.57179312046371      -0.67172686225653       5.52436509701455
F         2.62860646069857      -0.41031219133286       6.34399637825493
F         1.27773508829874      -2.00908898383163       5.66738424062298
F         0.50279484012407       0.02465029008549       6.02227664553613
