32
C8H16F3NO3S optimized with DFTB in AMS.
N         1.27100918346807      -0.21885906774138      -0.74335298133020
C         0.70578021358145       1.15957127132516      -0.57753587688760
C         0.16988578995886      -1.22486588035966      -0.86005637402065
C        -0.24250949214063       1.25272913790330       0.60862873747292
C        -0.81586974120753      -1.16493355103466       0.30271066397927
C        -1.38275226657070       0.24505129204413       0.46815388912882
C         2.17764809488145      -0.55345718828599       0.39168910862724
C         2.05987710031725      -0.23241800906195      -2.01178929700901
H         0.17817870448903       1.40249580510123      -1.50419585534696
H         1.55587974408553       1.83664500505368      -0.46029840229542
H         0.63696653061306      -2.21051987203647      -0.92429197902156
H        -0.35382669627307      -1.01989783149579      -1.79810401851417
H        -0.64489123337373       2.26835557289495       0.63402297484661
H         0.29731661294762       1.08482065189443       1.54405839706666
H        -0.33702604306751      -1.48808665155503       1.23057284774331
H        -1.62393889992829      -1.86839143883684       0.08540764994147
H        -2.02199826066376       0.28097371114183       1.35327446058212
H        -1.99340578080549       0.49981458749526      -0.40421668605921
H         1.59721758825820      -0.73225610342759       1.29241892972594
H         2.75136920723108      -1.44041383094771       0.13343603663874
H         2.85501931623137       0.28143614423441       0.54803015621460
H         1.37770153185501      -0.13414738709624      -2.85418354973264
H         2.75124721303905       0.60591863022998      -1.98847663188218
H         2.61527826034864      -1.16474224223142      -2.07705582692963
S         4.96240514347917       1.23160587866207      -0.73355710122599
O         4.74188984571312      -0.20060310749569      -0.90474809199388
O         3.70731742737062       1.98261912961651      -0.62114372979394
O         5.95149354661140       1.81937910142296      -1.59351073349927
C         5.63752695452606       1.34427181955015       0.98748327426025
F         6.74727038640932       0.63587075961588       1.13743388251853
F         4.71804462796512       0.85132125676873       1.83385383521828
F         5.88343056875019       2.59733509305173       1.34263636327753
