49
C15H28F3NO2 optimized with ADF in AMS.
N        -1.55580656677851       0.27909162430274      -0.19022390220698
C        -2.77419213091087       0.83360712993032      -0.89856244822313
C        -1.38065840831555      -1.18746554602153      -0.56651912901466
C        -0.35568018587064       1.07907263710458      -0.68134720783310
C        -1.69579252667976       0.38182315229604       1.32608866661700
C        -4.04152359066705       0.02898274323440      -0.65341708426399
C        -2.62694174918361      -2.01080756744178      -0.30454726131818
C        -3.84779728608920      -1.44294328998362      -1.02154198297280
C         0.98883048219671       0.72484437669897      -0.05211126601454
C        -1.62291791859647       1.79435728055679       1.87124159817309
C         1.83992118613156      -0.26190371123883      -0.85395942775044
C         3.13587271898650      -0.59741744195011      -0.12035880523504
C         3.91768253721597      -1.73253926291912      -0.77783407581605
C         5.12835350565815      -2.14598936123996       0.05519673948298
H        -2.52142826911246       0.81969305059216      -1.97122302650871
H        -2.88481946523610       1.88209288169803      -0.58779066928471
H        -0.54850985398133      -1.56369147496282       0.05377823980632
H        -1.12012496795334      -1.19072883182750      -1.63700193852509
H        -0.62506367586272       2.13108970406466      -0.50571103671781
H        -0.33289793858222       0.92129353659936      -1.77175901697196
H        -2.66132681904733      -0.07525687364401       1.56977540282984
H        -0.91245030686717      -0.26911560408503       1.74490104654470
H        -4.83819110483240       0.48848683992236      -1.26227412038843
H        -4.36340588978522       0.12584009510164       0.39690475929794
H        -2.79864465796636      -2.09623459360913       0.78103105509288
H        -2.39781108951930      -3.03389644229404      -0.64233319059315
H        -4.75346568917541      -2.02004287769576      -0.77714272405924
H        -3.69892623182680      -1.52481622752313      -2.11419474122728
H         1.55103990052943       1.66824728157701       0.07010708246483
H         0.85612832624184       0.30345591878708       0.95754341840540
H        -0.62569716002441       2.23850824959841       1.74620996081227
H        -2.37644650650599       2.46821993532780       1.43633932229883
H        -1.82149791048297       1.74351671583744       2.95272847954576
H         2.05492388873103       0.15393230786922      -1.85762989106366
H         1.28128987385021      -1.19925740086778      -1.00628906956916
H         2.88537185644613      -0.90728065007010       0.91012238861671
H         3.77190165886191       0.30646080545197      -0.04774193131317
H         3.24388778668891      -2.60175300268915      -0.88553514474412
H         4.22903602382875      -1.43667387186843      -1.79801513363775
H         4.79064887721023      -2.49900334544197       1.04228697174300
H         5.69352311126356      -2.95884168698296      -0.42628651012054
H         5.81602403537015      -1.29660343952335       0.20433603166608
C         1.17084158445579      -2.88796171563303       1.63484905187222
O         0.38624405906797      -1.89057706731685       1.68799673884196
O         2.32913446189882      -3.04107099444891       2.04048875355201
C         0.54655526852557      -4.10766479182272       0.86101123735059
F         1.22326737373372      -5.27161936385297       1.01524037593861
F         0.52148281254865      -3.84347586931511      -0.50577956785301
F        -0.76075731838836      -4.35802124088128       1.21125011797367
