69
C19H36F6N2O4S2 optimized with ForceField in AMS.
N        -0.52216131824414       1.78514842837889      -0.20222821265533
C        -1.37793867060759       2.32301494604709      -1.30948058912533
C        -0.21175613611420       2.90487790516768       0.74584331137706
C        -1.20310872365597       0.67094812554210       0.54533456388370
C         0.75906963120547       1.32346969670819      -0.83972853197223
C        -2.66919508281095       3.00641469344023      -0.82955667951350
C        -1.46120052259759       3.63352875738407       1.28422050159595
C        -2.34622322804764       4.13481022566079       0.14579918547545
C        -1.51216686680724      -0.60297954496584      -0.27756792305674
C         1.77386548947620       0.62632923562981       0.10116706205463
C        -2.20706057143827      -1.65078294497791       0.60235268316286
C         3.05030468754269       0.25647744812330      -0.66738459752800
C        -2.49019481868585      -2.93695784377277      -0.18189075011420
C         4.05579493367777      -0.46863073513087       0.23521095684537
C        -3.19469539437247      -3.97152177415753       0.70299755518271
C         5.33162802866186      -0.82006869835029      -0.53919473296012
C        -3.46375819274932      -5.26229822812287      -0.06363207083969
C         6.33617453419036      -1.54551672797696       0.35119523151765
H        -0.80913338867244       3.08422144050961      -1.89406267524345
H        -1.64071956826161       1.53390686228324      -2.04398932995523
H         0.35417439984448       2.53613097394962       1.62792487589300
H         0.43050337010933       3.66881033626749       0.24949443821803
H        -0.59566909030974       0.37911931608072       1.43026649044067
H        -2.16377549124516       1.01211471980096       0.97609191404307
H         0.54235429873692       0.63168568525533      -1.68449207247404
H         1.28074636405758       2.19062290437992      -1.30805064499171
H        -3.19615097436165       3.43475119548510      -1.70949191096511
H        -3.36435160501528       2.27572426112538      -0.36752812678976
H        -2.04521387887103       2.97706508793114       1.96218245132401
H        -1.13526817118155       4.50398083452388       1.89346362149631
H        -3.29048300918083       4.54732932148683       0.56203918176982
H        -1.82281642977266       4.95370878562310      -0.39516218310588
H        -2.18864147942458      -0.36586699785047      -1.12314401930997
H        -0.57924332858959      -1.04843493676766      -0.67838772259555
H         1.34247142286381      -0.30684197512251       0.51762788042786
H         2.05420640597239       1.29551362699866       0.93955504774401
H        -3.16662839347172      -1.23353406397384       0.98091674272847
H        -1.55887340348066      -1.88921091561408       1.47457731578732
H         3.51882396930153       1.18246241524081      -1.06819655088455
H         2.78678720889286      -0.40355865208607      -1.52341856918311
H        -3.13413755582710      -2.70189283955125      -1.05737398622097
H        -1.53036089317862      -3.35994269978494      -0.55229287294919
H         4.31617922720588       0.18473123219592       1.09703781464593
H         3.59342293615092      -1.40208937138555       0.62579969188927
H        -2.56056406390872      -4.20398319431476       1.58616082358439
H        -4.16249233299332      -3.55911520004006       1.06328127365211
H         5.07853978790340      -1.47369181331456      -1.40244907166256
H         5.80179866726022       0.10935706528691      -0.92849530367004
H        -3.96069202960658      -5.99617885077196       0.60462904531794
H        -2.51089380181950      -5.70099527590407      -0.42946026359453
H        -4.13367319285847      -5.06330053955967      -0.92499051115226
H         6.62655384815343      -0.90214035103346       1.20887473149088
H         5.89932024538728      -2.49243694203940       0.73378981013429
H         7.24720411711831      -1.78674736239720      -0.23600734056483
N        -3.42958221679192      -2.21241284205943      -5.42788344753144
S        -3.51399147945598      -2.07055289093030      -7.05848500619691
S        -4.75953723315238      -2.27480929061637      -4.47185595076153
C        -3.43932783250842      -0.34641677077253      -7.49746421526195
C        -5.10399048684233      -3.97461033473184      -4.07246227275628
O        -2.34227713793655      -2.77974859188930      -7.67568966431119
O        -4.79278535975261      -2.66563902563968      -7.57941993799024
O        -5.94901879798389      -1.67237369608846      -5.16669423281534
O        -4.48690784601695      -1.52270338999265      -3.20037299230782
F        -3.48229695353971      -0.21699511624653      -8.87253731704057
F        -2.26219594837075       0.19990268270397      -7.02243707102651
F        -4.51173635249819       0.32385652029061      -6.94074316224170
F        -6.21902682209218      -4.04261795719946      -3.25886997643306
F        -4.01939418396038      -4.52029015172600      -3.41446332351969
F        -5.33831238854843      -4.68780082954223      -5.23246574811070
