49
C15H28F3NO2 optimized with ForceField in AMS.
N        -1.54681971511722       0.10224591041085      -0.07911521016486
C        -2.56138589034966       0.49581272758794      -1.11042021155833
C        -1.78788183394263      -1.32341265740356       0.31623885954122
C        -0.20375496888083       0.19504788455011      -0.74735385922067
C        -1.62004390741279       0.98145817844661       1.13982062600239
C        -4.01959475978781       0.28186017525909      -0.67260463139692
C        -3.23100993330782      -1.61197386643400       0.77652313052232
C        -4.24986476712710      -1.17098665913271      -0.27018305219339
C         1.01988826116302      -0.12268606109094       0.14734817360437
C        -1.27112515929010       2.46458114811476       0.91605259717500
C         2.32103528525528       0.03649105728912      -0.64961309006899
C         3.54514764309229      -0.30496343005321       0.20784161598186
C         4.84096224141941      -0.11850104848386      -0.58948020787903
C         6.06167090289203      -0.49585117380002       0.24308636969690
H        -2.41362584250711      -0.10347891820916      -2.03970469077903
H        -2.43422008244965       1.55291023035137      -1.42293641427144
H        -1.11826452089514      -1.62241409410379       1.15140048733885
H        -1.56471267007917      -2.00713083048406      -0.53536178855511
H        -0.06187538974896       1.20608153185571      -1.19039903321627
H        -0.16550743681152      -0.50389664965469      -1.61526885933591
H        -2.63035977317526       0.96015489130862       1.59113613614997
H        -0.95636917772421       0.59195948981952       1.94162315153121
H        -4.68977511972771       0.52630561514432      -1.52487112034709
H        -4.29631040753463       0.96557183051872       0.15562422919299
H        -3.44242387714806      -1.11837338163581       1.74779912622131
H        -3.34257929211187      -2.70530561382682       0.94246280830533
H        -5.27612568236838      -1.28300109279649       0.14099103171674
H        -4.16599715721159      -1.82307857734832      -1.16730767691054
H         1.06520049101119       0.56624441530745       1.01453552863776
H         0.96513654538850      -1.16598975074769       0.52014974097262
H        -0.22831453869525       2.59815251172268       0.56694802858889
H        -1.97380147914452       2.95087088840540       0.21144578918160
H        -1.35846681812781       3.00132948434217       1.88400699896495
H         2.40468877109685       1.08641695639865      -1.00756832696693
H         2.29579248270154      -0.63677447086817      -1.53460520396130
H         3.47096331237254      -1.36082068608869       0.54954976492219
H         3.56642490190745       0.35622277131892       1.10213017963306
H         4.81810999637218      -0.75586777956116      -1.50000078746325
H         4.93585662165329       0.94314304363448      -0.90580520663270
H         6.01737920808126      -1.56711204306098       0.53239436768625
H         6.98131482062173      -0.32873376727294      -0.35532062561078
H         6.11214843718644       0.12916480694719       1.15945837548586
C         9.10151113747057       1.07113261194144       2.77415826339179
O         9.89400329552138       1.48718993497910       3.60450388844866
O         8.27266450100337       0.23589914295129       3.09845483085309
C         9.14159372939495       1.57699147923735       1.36272623660709
F         9.37341565737354       0.52094376897860       0.50095623029879
F        10.15034472881100       2.51205534068046       1.20888121891893
F         7.93115089388696       2.16692952855514       1.04801394196055
