25
C7H16ClN optimized with ADF in AMS.
N         0.89979797002240      -0.18461104867438      -0.12712240608490
C         0.23307130809735       1.16486897815515      -0.37999697929404
C        -0.03503403088202      -1.30385556792670      -0.50934091791379
C        -1.10778108580480       1.27912907254022       0.32012671957731
C        -1.38385204025059      -1.21264642177407       0.18827308914435
C        -2.05105430823460       0.13958471471483      -0.06890023692401
C         1.32625183104617      -0.29512828555270       1.31177499989839
C         2.13947799353930      -0.25030039629216      -0.97451596669231
H         0.10866872397188       1.22383365576075      -1.47399086256985
H         0.98906957657616       1.91606989776121      -0.04990996299297
H         0.48904159548387      -2.24494972671298      -0.27994602349249
H        -0.15927930130263      -1.23187621643912      -1.60222053457344
H        -1.53512458756159       2.25718306648520       0.04426320760541
H        -0.96447463163524       1.31432071413597       1.41343094776958
H        -1.26291861754136      -1.38056164664256       1.27145320101929
H        -2.00644946858078      -2.04284897167547      -0.18393111317697
H        -3.00116103813840       0.20617614785691       0.48495091819815
H        -2.30079985866992       0.22362833555272      -1.14286908804675
H         0.44564099863717      -0.24447171597028       1.95831644776464
H         1.82864820276205      -1.26422647692550       1.43694179116527
H         2.01800957359670       0.55897425188517       1.49511365416617
H         1.83962142013828      -0.16420124426709      -2.02729566133052
H         2.78235362705587       0.60097062277675      -0.65701910109176
H         2.62598765070309      -1.21914932188535      -0.79516252656938
Cl        3.05940655997163       2.43555330991348       0.73367591404460
