49
C13H28F3NO3S optimized with DFTB in AMS.
N        -0.29454416341958      -0.09553689280399      -0.29879438260946
C        -0.77082003446361       0.65171252642234       0.91342318759281
C        -1.43980023576354      -0.73946895550628      -1.04115020266270
C         0.65138585651278      -1.18825161389852       0.13117184946758
C         0.38564662303222       0.88588668204031      -1.21787991579143
C        -1.60281447936776      -0.16073749327571       1.90492689840692
C        -2.55013936824283       0.20443691677760      -1.49598078555355
C         1.38226920344332      -1.91099817551578      -1.00181328084884
C         1.67112798743020       1.51968424569636      -0.69330769054830
C        -1.98013722075065       0.72733254981842       3.09085864195111
C        -3.52585524281154      -0.58645289216581      -2.36777244266142
C         2.30551963905922      -2.96930778511683      -0.40071432051218
C         2.31689894138320       2.29271897354055      -1.84522349634166
H        -1.35478390522422       1.50254420993681       0.55416570921001
H         0.11871009640070       1.03634505547242       1.41842721689040
H        -1.84890118299399      -1.51594152449495      -0.39029933936340
H        -1.00649037333792      -1.22333139660755      -1.91681674904176
H         0.05792448695374      -1.91318620316439       0.69392823604719
H         1.37431647507142      -0.73808968771087       0.81677867401696
H        -0.33874089523701       1.67079046208039      -1.44021242444613
H         0.59968793248684       0.35146984651025      -2.14048746080365
H        -2.51582678453685      -0.52826278134380       1.43139005104121
H        -1.03630583872056      -1.02145376705940       2.26873322831242
H        -3.07716489331189       0.63479419567791      -0.63900127147063
H        -2.13792042844194       1.01550495620745      -2.09857994597118
H         0.67161148453411      -2.39590233695360      -1.67322705664591
H         1.97594990815182      -1.21378998527610      -1.59508646165400
H         1.46383191517594       2.19989115651492       0.13875266485606
H         2.37234419418561       0.75872729053377      -0.34342184022721
H        -2.58007294910217       0.15701991470561       3.79896699628498
H        -1.08617220401985       1.08683995103018       3.60140879358396
H        -2.56070723849155       1.58727221442321       2.75570169361051
H        -4.34454363121834       0.06053807434546      -2.68059487209080
H        -3.01019269119185      -0.95211579260226      -3.25563438239038
H        -3.93781904944198      -1.43560539298963      -1.82087686000238
H         2.82249968016638      -3.49250299383500      -1.20388331344201
H         3.04976122959802      -2.50970269712142       0.25153777416752
H         1.73519232404624      -3.69716389737679       0.17828161014859
H         3.25405667150324       2.73788610148357      -1.51293053173415
H         2.51903531820532       1.61964793816398      -2.67889215201887
H         1.65416723706197       3.08600339590347      -2.19156208207789
S         0.12118966537728      -0.74792488389640      -4.25461787613525
O        -0.82135238710185       0.33986846717427      -4.03198077528429
O        -0.33936937524470      -2.03212014684718      -3.74348979880849
O         1.49322406496037      -0.42319348436882      -3.88950567596393
C         0.15908852980499      -0.96705245157505      -6.08858344800924
F         0.51790547597334       0.16169956403486      -6.68768336772338
F        -1.04200827358753      -1.31488124964036      -6.53525774575500
F         1.02358267230541      -1.91497238114756      -6.42801717449877
