40
C12H26ClN optimized with ForceField in AMS.
N         0.97522174016119      -0.31463420004160      -0.03171734227924
C         2.03300994423800       0.04690726468107      -1.02549549521144
C         1.65760428364653      -1.22345582212980       0.94050162686417
C         0.50080590960802       0.90971932732982       0.69303199950965
C        -0.13320110407841      -1.04041540019950      -0.73460483079825
C         3.23214673628836      -0.84971034215427      -0.78373946238134
C         3.14977392470182      -1.14911701440462       0.68522342986599
C        -0.25090427567598       1.93756925205724      -0.18444061321347
C        -1.30313831668937      -1.47717475278444       0.17813223885991
C        -0.55992367127987       3.20481137370974       0.62502480060220
C        -2.32116992658593      -2.31050514139475      -0.61194342855174
C        -1.30555842540992       4.23824958762177      -0.21351136451611
C        -3.49347241436468      -2.73524047153683       0.26746792705778
H         2.38414450363480       1.09708030847118      -0.90405459565348
H         1.69977169111144      -0.05124502487572      -2.08390861504208
H         1.36023309851380      -2.28801780675929       0.80143315672106
H         1.44560851158611      -0.97449688074391       2.00543690504962
H        -0.16167983538951       0.62848215675507       1.54069179415381
H         1.37319079642485       1.42386177699716       1.16021469846010
H        -0.54610655145410      -0.41691925776751      -1.55805938128280
H         0.27727048064979      -1.94947796528498      -1.23431156595606
H         3.12285855991975      -1.79161248272267      -1.36737922774309
H         4.18853630060303      -0.34927550860583      -1.04920348102563
H         3.59260620284938      -0.30932342127972       1.26643007982881
H         3.66453269055497      -2.10005630549714       0.94312879408052
H         0.35931377496016       2.21401948816658      -1.06967405948233
H        -1.21215007737555       1.50863667562768      -0.53779974888055
H        -0.92805052533921      -2.08315861363792       1.02959689199585
H        -1.82519027723751      -0.58571185334681       0.58358132782101
H         0.38696695983528       3.65886496873695       0.99115140689862
H        -1.18547484105235       2.93975981890755       1.50542004362808
H        -2.71174870877505      -1.71286129037586      -1.46472884349933
H        -1.82866006857632      -3.22191292634509      -1.01662562566485
H        -2.26964611594642       3.82067175550281      -0.57438739977232
H        -0.68794721175880       4.54750004803555      -1.08360545922519
H        -1.51775348452822       5.13468841783921       0.40754438533145
H        -4.01781213310518      -1.84231009545854       0.67013736957262
H        -3.13489976606991      -3.36313121539463       1.11088050015122
H        -4.21428112239089      -3.32781105306495      -0.33513000456480
Cl        2.94207356609590       1.48361475656699       3.77573667109160
