49
C13H21F6N3O4S2 optimized with DFTB in AMS.
N        -0.53502491646220      -0.19580644197800      -0.52690221974872
N        -1.34859435973932      -2.16566156867290      -0.83619278757732
C         1.38018335870820       1.26056363667527       0.05440710092070
C         2.40365619470177       0.16756268391210      -0.25628369889499
C         0.10575803868640       1.09381145742486      -0.77729655870653
C         3.72430098470155       0.39819746719302       0.48216113030264
C         4.72493082221444      -0.71609819591694       0.15660263717820
C        -0.72735817170599      -1.15216746807262      -1.43471536411159
C        -1.02511479475884      -0.61828274400484       0.67949429485425
C        -1.53743130746274      -1.86140191961822       0.48150821442692
C        -1.79824687474250      -3.39031327803933      -1.49085175331526
C         6.04334837770644      -0.51480980750049       0.89913924303910
C        -3.19261204570406      -3.18144691878343      -2.06989425331549
H         1.79253677481282       2.24669167397322      -0.18024202249230
H         1.12610675834611       1.24602925484118       1.11842402832480
H         2.58751922481786       0.13513858864076      -1.33495737362031
H         1.98961833980434      -0.79886098209090       0.04034529469580
H        -0.61721368481279       1.87801192066748      -0.53138451095581
H         0.33339494421378       1.14221354957809      -1.84533199923299
H         3.53777821639476       0.42479648944385       1.56178723428447
H         4.14360163256192       1.36847936261261       0.19169630990603
H         4.91083550530428      -0.73324618163291      -0.92155155023185
H         4.29331373649381      -1.68256065610558       0.43402275524711
H        -0.42838314207641      -1.11291541741997      -2.46778005238102
H        -0.96434716822775      -0.01485853224659       1.56763109949852
H        -1.98649417348771      -2.55592619740578       1.16891633561143
H        -1.08125298876060      -3.63853383518734      -2.27514722966777
H        -1.79247177221547      -4.18636704388741      -0.74405674974462
H         5.88310083220006      -0.52652853116830       1.97857167275205
H         6.49723384219245       0.43949759433990       0.62578094467629
H         6.73802844979346      -1.31476630136866       0.64287128450046
H        -3.90310836012685      -2.93647075404413      -1.28055347411982
H        -3.51349247283495      -4.09807056817578      -2.56224147300124
H        -3.18418322999661      -2.37260131696846      -2.80035805739952
N         2.36817543619210      -2.78827930623001      -1.03305691293104
S         1.51482487899341      -3.81572625900635      -0.15418396394433
S         3.06519616642624      -3.32743390549805      -2.37463821811090
C         2.71064253078474      -4.96321189536515       0.73292821618759
C         1.78940517432686      -2.98844325921913      -3.70760885104825
O         0.92174020773132      -3.02292164622479       0.90584986018035
O         0.61908890912919      -4.68788930267076      -0.89120304092766
O         3.32655432420074      -4.73928363728734      -2.43103696221850
O         4.11355674394733      -2.40146873228019      -2.70448919220307
F         2.25812665196198      -5.17194830941834       1.96086421530756
F         3.90211127980925      -4.39401541010350       0.80911480647674
F         2.81075541804586      -6.11784617813234       0.11135061567815
F         2.30435710068587      -3.11993971279851      -4.91387731150159
F         1.35394034189726      -1.72325088471743      -3.57215453699307
F         0.72289024442816      -3.77495568036189      -3.60905711675356
