60
C18H36F3NO2 optimized with DFTB in AMS.
N        -0.08281048010504       0.19817269311200       0.13295635231278
C         0.80405681931865      -0.79546204207329       0.83821802526858
C        -1.04088382809547       0.79360970494312       1.14115763208484
C        -0.81024353325399      -0.50211369003636      -0.97713460536808
C         0.73540483679223       1.32077808709194      -0.45268520356723
C         1.74260373972120      -0.19797953100449       1.88549779851457
C        -2.19991614444361       1.59271733564016       0.55145804667886
C        -1.75084821209172      -1.62181878735590      -0.53427444198598
C         1.71186696168877       0.94368312808896      -1.56038414011976
C         2.45998282708690      -1.32692269110767       2.63494165668354
C        -2.95267403079049       2.28048973652728       1.69871027823802
C        -2.53004835397882      -2.13815252251628      -1.75077031847424
C         2.61579364504987       2.15896723517999      -1.82061157534448
C         3.40755357822852      -0.75147365081555       3.68556760780914
C        -4.12741175389560       3.09601483257095       1.16492808573666
C        -3.47086638753998      -3.27497581168255      -1.35803697228543
C         3.58363536459384       1.89290938235803      -2.96929099708675
H         1.38352169178933      -1.31423415410053       0.07027232342091
H         0.14352245598235      -1.52166467872818       1.31776355315881
H        -0.45160542720202       1.45825913594834       1.77540940391773
H        -1.42100280145954      -0.02876162277597       1.75216070966086
H        -0.05164056413222      -0.91769250522789      -1.64389852009715
H        -1.36525421591614       0.26292986256808      -1.52447735728932
H         1.29126891002954       1.75387166683883       0.37535859272325
H         0.03636425549968       2.07519540368179      -0.81596562132640
H         1.18515572653906       0.40727520722511       2.60230111506843
H         2.49102270118911       0.44202802672026       1.41402088416967
H        -2.88710590770363       0.94593127463506      -0.00180686833753
H        -1.82395773976606       2.36371795087040      -0.12385783677862
H        -2.45800491975560      -1.26490364822905       0.21727630346209
H        -1.18111700079482      -2.44661140493051      -0.09793311521401
H         1.17918402359516       0.68226491455283      -2.47982937117956
H         2.32861400472278       0.08867678225650      -1.26832712298744
H         3.02509474561894      -1.93820645722907       1.92293298850934
H         1.72055604500409      -1.97341373678685       3.12000948137831
H        -2.25861943269648       2.94113040956497       2.22547338094177
H        -3.31536183931312       1.52602180509551       2.40556889900936
H        -1.82568563355680      -2.49084892344884      -2.51120600878789
H        -3.10965932125362      -1.31703467739933      -2.18470199713582
H         3.17387434168032       2.39263142977280      -0.90996961816666
H         1.99304574582988       3.02824442869559      -2.04986961193011
H         2.85292680022937      -0.15922705934223       4.41345015117119
H         4.15351869421155      -0.11112498577798       3.21471073551333
H         3.91892996143819      -1.55969022834780       4.20796541741838
H        -4.83201346144411       2.45646137202998       0.63016836572724
H        -3.77256737472090       3.86994507094139       0.48392633090231
H        -4.65093836648993       3.57487729583952       1.99216950391944
H        -4.19030209442334      -2.93502583498273      -0.61243003458625
H        -2.90790966530955      -4.11152592847278      -0.94271735170009
H        -4.01629797023665      -3.62334082129877      -2.23458436387858
H         3.04003671101460       1.68211786818558      -3.89174853269751
H         4.22604323490248       1.04049206446591      -2.74228277597836
H         4.21245186314126       2.76818559370338      -3.12948543699764
C         0.99575567400968       3.82917146817882       1.20614444708134
O        -0.22208550837344       3.65554910675896       1.17234059946555
O         1.81922909428853       4.13482817437514       0.35971383285668
C         1.64854101007315       3.41303746108891       2.65016892210961
F         2.77546942650504       2.68305245443476       2.46492365680743
F         0.80683696890182       2.59019998924256       3.33410467176622
F         1.96176191956680       4.41660499078719       3.47552879801466
