48
C12H26F2N2O4S2 optimized with ForceField in AMS.
N        -1.62741499252378      -0.29138302641836      -0.18143416861740
C        -1.91008554105800       1.12079866426127       0.21934365673068
C        -2.63734910733695      -1.21422441717752       0.42823301640294
C        -0.28933763540723      -0.71386138187865       0.35180832284006
C        -3.35568094886992       1.56482172142500      -0.06804003078523
C        -4.10213047311681      -0.81506487319933       0.16778750341262
C        -4.35873225968105       0.62606324910312       0.59270658192503
C        -1.63932586826781      -0.43529536628468      -1.66292402536225
C         0.93281794196425       0.06692292095889      -0.19318721023090
C         2.23160406290799      -0.46281067001689       0.43007822676172
C         3.45753963880616       0.26902604012778      -0.13011513048591
C         4.74996368443772      -0.27466848773698       0.48982026666716
C         5.97533586218135       0.44515296870580      -0.06529800233671
H        -1.24146810169968       1.82695922861384      -0.31833388662739
H        -1.72022112137231       1.25750775392806       1.30878335482017
H        -2.50512921145750      -1.25316454579308       1.53484861562524
H        -2.49020218944359      -2.25385244835074       0.05594116581997
H        -0.27784653366214      -0.61938268113374       1.46261100540043
H        -0.12203774516136      -1.79412587917868       0.13167969759629
H        -3.50615956632688       2.59006108258210       0.33416328209594
H        -3.53984804495900       1.61144271929497      -1.16229463393862
H        -4.37437473573591      -0.95668668808752      -0.89834710498058
H        -4.76656435770472      -1.48414434367857       0.75653086622528
H        -4.27704026906994       0.70978178549063       1.69890980550806
H        -5.38987658377073       0.91980617393058       0.29950821576608
H        -1.00335130775516       0.33216823638163      -2.15247861258704
H        -1.27944916105620      -1.44247426467360      -1.96985390032708
H        -2.65049065354269      -0.30189706334393      -2.09263237280022
H         1.00887621559936      -0.05228020279471      -1.29334587582056
H         0.84558421724188       1.14557696254338       0.05047354204218
H         2.19397803854243      -0.32446469439201       1.53318961492866
H         2.32684933316375      -1.54995072713704       0.21447461164060
H         3.37076533879638       1.35558889343919       0.09168284198474
H         3.49501598547980       0.13535645912096      -1.23385063418081
H         4.84340137685990      -1.36120754843052       0.27227393997159
H         4.72252613899333      -0.13820267159975       1.59283816242002
H         6.06242139751678       0.27100066707887      -1.15907114394103
H         5.90542132264422       1.53626461089924       0.12983839341195
H         6.88870120499801       0.05719392007293       0.43137862976559
N        10.37890005376730       0.01826713308108      -0.67030474575077
S        10.15440610233023      -1.54297430112640      -0.23544882597472
S        11.84662209196349       0.56437204196846      -1.14445992985800
F        10.80537875533635      -1.78861245966029       1.28673665671932
F        12.17303164840651      -0.00167350932956      -2.68537656323115
O         8.68496876007441      -1.85248680978477      -0.20356153812200
O        10.84294132786975      -2.45392967069010      -1.21286587336265
O        12.90966261203422       0.06372709272014      -0.20693028987083
O        11.84615728946377       2.06667351256952      -1.15576263519049
