28
C10H15NO2 optimized with ADF in AMS.
N         0.58152921190775      -0.19210701879223       0.30607716960623
C         1.74050480661041      -0.08620710699225      -0.58835509218940
C         2.64225288232805       1.10412796337936      -0.25117036611083
C         3.94210532602548       1.07521400283397      -1.04865009552459
C        -0.38441656331850       0.77423664647399       0.25733812449950
C         0.65912618339390      -1.10156097323932       1.39256654287471
C        -1.46995870878122       0.75855044971883       1.08051943857551
C        -0.62106238988773      -1.26725124308487       2.09734087297815
C        -1.60127215843371      -0.33475657886335       1.98974500547008
H         2.31037809410502      -1.02116527725790      -0.48752553690135
H         1.37925481474503      -0.01657983102369      -1.62924850796155
H         2.85561379575353       1.08638934339854       0.82911522229942
H         2.09525521731060       2.04419884889886      -0.44378991269227
H         4.52283916645817       0.17048852587317      -0.80960193706872
H         4.56621037664811       1.95056363741565      -0.81465297054402
H         3.75033653218421       1.08054344352392      -2.13379309070939
H        -0.25026609040677       1.52238612486934      -0.52279414494022
H         1.15568815874468      -2.02962716883757       1.08859853876398
H        -2.23915035290148       1.52198598908486       0.98440840810917
H        -0.71668628990607      -2.13101249390157       2.75487403768875
H        -2.51908482580683      -0.44062714615991       2.57238594468305
C         3.78157062648226      -0.48069917174807       3.51790264675892
C         2.91676962013030      -1.04812436121526       2.42069194420236
O         3.31708377978614      -1.86469030459280       1.59940872910218
O         1.67369507049186      -0.53191185751505       2.47075504831943
H         4.82050227429238      -0.79492941447861       3.36571973171496
H         3.70750155086035       0.61594804462614       3.53726215798606
H         3.42145486428407      -0.84577705009421       4.49165520350986
