27
C7H13BF4N2 optimized with ForceField in AMS.
N         1.11097932611284       0.34166559042189      -0.39133890664280
N        -1.11210213115316       0.35024699803287      -0.38754786993673
C        -0.00361096434756      -0.25116956642140      -0.86210550429629
C         2.49272404268883      -0.04994444797452      -0.65505579969079
C        -2.49735350821361      -0.03222888728919      -0.64633691584714
C         0.69466144156338       1.35404575131422       0.39546305987789
C        -0.68537400604787       1.35968233954485       0.39785034939645
C         3.10185616732793      -0.70531331808575       0.57930900618369
C        -3.10469654843314      -0.68867232576661       0.58829965598245
H        -0.00795587125780      -1.11481538904684      -1.51612931330841
H         2.52921005524320      -0.76998028369650      -1.50137364487125
H         3.08573691912397       0.84621678807303      -0.93849151484565
H        -3.08649179508191       0.86818686187005      -0.92416079364298
H        -2.54170725872299      -0.74919136119610      -1.49495506377539
H         1.34532309772226       2.03325566424889       0.93010106723430
H        -1.32808598196351       2.04506968111172       0.93462194098173
H         3.09976562032239       0.00474842005857       1.43363176162138
H         4.14924107291812      -1.00622780781944       0.36521099670341
H         2.51666959959137      -1.60888307839987       0.85479232565517
H        -2.52136941895444      -1.59458846082332       0.86011887789679
H        -4.15349206908054      -0.98635036672923       0.37648164748824
H        -3.09810639347041       0.01961619908054       1.44403917636884
B        -0.85707545946454       5.10727106287017       2.31499447129219
F        -1.13977162941221       5.99701809220507       1.24473033065849
F        -0.44941375003816       5.85039966122401       3.45445093340884
F         0.18525154222277       4.22376225785666       1.93189172468110
F        -2.02253249549519       4.35863495993625       2.62929498622649
