30
C8H13F3N2O3S optimized with ForceField in AMS.
N         0.07667258050938      -0.63861779585933      -0.44914978701651
N        -1.97741568891771       0.13538774438346      -0.09620692575711
C         1.45240486931789      -0.73888540753907      -0.93379674682437
C         2.45344533583873      -0.38183813483485       0.17147971792912
C        -0.82190458006744       0.31489316101475      -0.76474259176764
C        -0.53152936618821      -1.44613637310386       0.44380808823013
C        -1.80698988172914      -0.96589849257214       0.66130856197188
C         2.25737298465684       1.04261247404923       0.68705445908000
C        -3.16347149752576       0.98076507180545      -0.14634007101834
H         1.60336192568722      -0.05784201276029      -1.80015333590697
H         1.64366743930809      -1.77582919116885      -1.28617225345143
H         2.35889706337882      -1.09975443191058       1.01465862746890
H         3.48085068353964      -0.46486713503440      -0.23893345292636
H        -0.62953020260344       1.13453839376534      -1.44601962571796
H        -0.07806991134223      -2.30939664235543       0.91332648707978
H        -2.54567362299765      -1.37757251925423       1.33663845832081
H         1.26174742512727       1.15005890558028       1.16675343355839
H         2.34354118296344       1.76912691742164      -0.14877003343435
H         3.03619786464483       1.27413743882097       1.44350470674630
H        -2.98032549001252       1.87154856423262      -0.78483895105319
H        -4.01436217443703       0.40476948813217      -0.56624636193944
H        -3.42222696118439       1.32306578992054       0.87784690659279
S         5.24829976001580      -4.61867106921851      -1.96400739781596
O         3.82962903844671      -4.66489068810909      -2.54999121667817
O         6.05011331856951      -5.51393451227583      -2.91966644325710
O         5.12962219666333      -5.47913024389383      -0.69774839510601
C         5.92642243990901      -2.95577124935074      -1.70679512827151
F         5.13142986857896      -2.27288974766176      -0.80933339238641
F         5.95360734589124      -2.27602660333330      -2.90951255300015
F         7.20872490195881      -3.05195239649038      -1.20180798384913
