35
C9H20BF4N optimized with DFTB in AMS.
N         0.04065011349439      -0.42769641667936      -0.17226232693183
C        -0.53963160870705       0.69719440566746      -0.97516223829812
C        -0.95829222696619      -1.55506451252242      -0.15510635460685
C        -1.87342276119573       1.18498106704378      -0.42071719183683
C        -2.32154955375323      -1.14091286788367       0.38044135046720
C         0.37401222011512      -0.00866474608771       1.23415019740650
C         1.27752125580539      -0.89452511387429      -0.90113451662827
C        -2.89138732984669       0.04498585874418      -0.39337795335468
C         1.29408387650703       1.19615005018915       1.33989578293492
C         2.05419577747183      -2.00964208467023      -0.21723254707407
H        -0.67862038349453       0.32088698800125      -1.99320146500400
H         0.19103279404271       1.50775482887316      -1.00393243762515
H        -0.55288545084280      -2.35568685666040       0.46457859845731
H        -1.04931160627775      -1.90528599747245      -1.18766642275134
H        -2.22717304719659       1.98906240011534      -1.07193918548766
H        -1.74324138526781       1.60109275629036       0.58139257463828
H        -2.25374187692087      -0.91326519192022       1.44615540137658
H        -2.98029318955103      -2.00696440181775       0.27545224870380
H        -0.56365555055540       0.19423035587626       1.74980962204994
H         0.83564299917395      -0.87013487493165       1.71726933374586
H         0.94342326766683      -1.22618387536609      -1.88850867725701
H         1.91703697934886      -0.01822430566067      -1.03673487160348
H        -3.81477750197589       0.38953834633164       0.07814557349330
H        -3.12532974390259      -0.25775484692279      -1.41981490059987
H         1.51487871350447       1.33652857834854       2.39813789970875
H         2.23674362323438       1.03895524087376       0.81787000157077
H         0.82872140262780       2.10866972432695       0.96793201683237
H         2.85922598935592      -2.30433749970944      -0.89086778616455
H         2.49368130843377      -1.68335113958571       0.72269642331044
H         1.43179024036399      -2.87961465811317      -0.01943850141022
B         0.25029894556133      -3.09512552545500       2.71584745215658
F         0.12579277025681      -3.90864621764157       3.80070498966390
F         0.16220940142075      -3.81690970685844       1.49815294244787
F         1.48577246147850      -2.40541897182865       2.70408709824805
F        -0.77679328330973      -2.10569157882016       2.68263561862152
