44
C12H26BF4N optimized with ForceField in AMS.
N        -0.71294368466226       0.31099717081435      -0.15638648187434
C        -1.27745852709256      -0.45862850479619      -1.31191004121964
C        -1.84075210014001       0.72379331935906       0.74172365514130
C         0.28048313914714      -0.50263421941727       0.62811213353728
C        -0.08349039752739       1.54880709518160      -0.73356533610843
C        -2.12973083599867      -1.67194718197205      -0.90362310770758
C        -2.73892170036097      -0.44334217870302       1.20093763972773
C        -3.26983904635173      -1.24204075817807       0.01412850642354
C         1.56128601970755      -0.92278519076639      -0.13398923472864
C         0.64966774284467       2.46565772480987       0.27666712955716
C         2.50223307252394      -1.71087842262710       0.78709671714030
C         1.21643420275306       3.70150593907400      -0.41955490498855
C         3.76512106515383      -2.15045800020701       0.05128050879005
H        -0.47906521100830      -0.79877979165864      -2.00273617396756
H        -1.93231422245239       0.20344000718248      -1.92601678813514
H        -2.49501836457508       1.46639139293293       0.22896233238835
H        -1.45636754180108       1.21523884215294       1.66113483379477
H        -0.18465310997178      -1.43222609063940       1.00906657567484
H         0.58337558859545       0.04836092326027       1.54505908384187
H        -0.86251071075130       2.16683920228362      -1.23779121443187
H         0.63189059496407       1.27865285535937      -1.54208322737580
H        -1.51148165534883      -2.45480915666934      -0.41866000669453
H        -2.56349865507711      -2.13041614751130      -1.81875925461726
H        -3.60287086620638      -0.03010634387322       1.76536134156973
H        -2.19540550832667      -1.11286272455906       1.89936064136864
H        -3.99355689871124      -0.62015130647559      -0.55745344759391
H        -3.80813848055644      -2.14143215665690       0.38290827605255
H         2.11112388746672      -0.03451763381254      -0.50377371135496
H         1.30347666861957      -1.56955104545354      -0.99676756549085
H        -0.04161993005485       2.81351826064276       1.06974207475763
H         1.49844240704338       1.93514821176241       0.75212364974544
H         1.98173383044254      -2.61260911423240       1.17310463017540
H         2.79467966545829      -1.08025811626534       1.65423718135316
H         1.74721845372609       4.33602922323970       0.32122893352220
H         1.93767552471997       3.40446974780411      -1.21032531866959
H         0.39845229825248       4.29947210253704      -0.87444483414544
H         4.33447423863997      -1.26431942926980      -0.30068569076393
H         3.50465780415453      -2.78973948264479      -0.81869637502494
H         4.41065780827740      -2.73601527644308       0.73946977162832
B         0.19864409668367      -6.09458222505034       0.20230457935233
F        -1.12941202106441      -5.78923506339908      -0.19725428092052
F         0.16817292166837      -6.94396938814328       1.34014096790184
F         0.88186557106407      -4.89407916693070       0.52681683944620
F         0.87466251013271      -6.75068312984109      -0.86035594867719
