59
C17H21F18N2P optimized with ADF in AMS.
N        -1.34539869262613      -0.57828189501623      -1.93121321902744
N         0.61787009983793       0.33284106165836      -2.13857095807188
C        -2.50685159907166      -1.26146998662862      -1.33911933501515
C         1.94692774811211       0.85463164712277      -1.77829695126967
C        -3.31314424673768      -0.36066686647203      -0.40819975927400
C         1.87895574312134       2.28313144120314      -1.24601777203277
C        -0.17108638016066      -0.37256289302678      -1.31573795585152
C        -1.30330564984831       0.02181073918420      -3.17240895449182
C        -0.07322879393672       0.59485843129319      -3.30181060379966
C        -2.55304211263374       0.10400907662463       0.83240041731037
C         0.96990896298587       2.45038397982891      -0.03123520885927
C        -3.44852028738688       0.87834509249830       1.79775957497890
C         0.95020164586389       3.89436073785192       0.46556434135560
H        -3.11895777050620      -1.61298396567391      -2.18206722926083
H        -2.12377577234867      -2.14767273716272      -0.80864930463810
H         2.35873174560434       0.16422399761549      -1.02529707444049
H         2.57295411397919       0.78561041523964      -2.68022749122390
H        -4.19980051173905      -0.94492171405603      -0.10189329278580
H        -3.67906495075517       0.51130867611352      -0.97191301095570
H         1.54326660864148       2.95755678344121      -2.04787772502586
H         2.91480331703040       2.57196788296026      -0.99026525795097
H         0.09249833222437      -0.71246550430103      -0.32320975492092
H        -2.15448757488725       0.02507661934543      -3.84084500150012
H         0.33970146950479       1.20136171589445      -4.09640535583574
H        -2.11498330608854      -0.77294996042980       1.34866271848008
H        -1.71964424786309       0.75956210903908       0.52939600490099
H        -0.05934733941710       2.17215856462380      -0.31072161000978
H         1.29688080086354       1.76996694524455       0.78000116039990
H        -4.30258849189398       0.26393810776041       2.12397830341530
H        -3.84244283339770       1.78373096220804       1.31443445892070
H        -2.88905203203071       1.18599696286012       2.69326773367509
H         0.55403653894579       4.55819905207237      -0.31685218625844
H         1.96262936770900       4.23550003104905       0.73555039582091
H         0.30660623546950       3.99723549386310       1.35164445187721
P        -1.82046650843732       4.34897960879995      -3.20711029545759
F        -0.75980125707535       3.20276711172232      -2.55124299844785
F        -1.69865863778841       5.32832197646887      -1.87016097859501
F        -1.97353793425774       3.36249487888936      -4.55135332401266
C        -0.15417220440761       5.17623433098877      -3.87022082140970
C        -3.20473112928923       3.25711833641572      -2.16136508667508
C        -3.16649338027535       5.57173293619492      -4.06099954996497
C         0.69607030860401       4.47799191444352      -4.97894436648770
C        -4.63494380236399       3.68950562816489      -1.67275429384423
C        -3.00139204324855       6.32949228689199      -5.43070354294475
F         0.73141100366030       5.30377800678448      -2.81172963061730
F        -0.37558061084472       6.45139355967318      -4.33016635582693
F        -2.57304914435299       2.94174411718742      -0.96402721148192
F        -3.42104076286535       2.04775507511600      -2.81367307598728
F        -3.57725762391475       6.54018412426926      -3.17887568355572
F        -4.24717952028139       4.73844436373461      -4.29128300525289
F         1.81255196895257       5.21824927559794      -5.22154096916623
F         0.03922769804518       4.32751028640308      -6.14175547476315
F         1.12841511831398       3.23945933677797      -4.58034343584621
F        -4.99999010484704       2.89556511394672      -0.60987687135637
F        -4.65202163185519       4.96542850439560      -1.24487831061867
F        -5.59366891626470       3.51040735446272      -2.60581572832930
F        -2.42532260777363       7.54275831223448      -5.28071315984109
F        -4.23806129725058       6.54828702095506      -5.96215408348508
F        -2.29359215594646       5.61110128495232      -6.33005311096755
