57
C15H32F2N2O4S2 optimized with ForceField in AMS.
N        -1.08841343736249       0.82568280901142      -0.17952359387792
C        -1.57080797096158       1.86666379460535       0.78667664505250
C        -2.06601613944926       0.73433911783063      -1.31274389648831
C         0.21215046094148       1.29005221154842      -0.77491537029692
C        -0.93337391574855      -0.48959263733601       0.53580671684756
C        -3.01636751995515       1.64647156270840       1.27851994675043
C        -3.51123003423589       0.44790527059253      -0.87403001228075
C        -3.99065922211851       1.50899002601178       0.11147114866638
C         1.41448113660061       1.36707860385897       0.19898978460589
C        -0.34768765889548      -1.64962690932763      -0.30665745985781
C         2.66308621819388       1.87877182301853      -0.53255410429305
C        -0.21678163658124      -2.91981162625174       0.54519396838605
C         3.88114222368994       1.90999339056752       0.39773732396133
C         0.36412621558358      -4.07963704367514      -0.27199120793792
C         5.11990965552273       2.40895032679680      -0.34020237525651
C         0.47884752213482      -5.34469796763374       0.57419961008339
H        -1.52772110761153       2.87927728126876       0.32305652697810
H        -0.92410068265405       1.90166487522777       1.68972012989251
H        -1.75942244112186      -0.03037832654059      -2.05616783004442
H        -2.08548196238198       1.69623799391779      -1.87769991123990
H         0.08195445488130       2.30304586007329      -1.22275147910057
H         0.49974850045303       0.63830649593616      -1.63007883349660
H        -1.90518015154770      -0.84035896221294       0.93386966414332
H        -0.30103196003783      -0.35896609640121       1.44127469135252
H        -3.32209794369091       2.51967540722592       1.89504241830009
H        -3.08049167150182       0.75524784038282       1.93686443872760
H        -3.60630568033413      -0.56621152264182      -0.43442964696232
H        -4.16927191148437       0.47016357682535      -1.76978194812356
H        -4.08271763462300       2.48656549337328      -0.41139434800858
H        -4.99475059204411       1.22956018740579       0.49700574567265
H         1.19419251056754       2.05868594967895       1.03775174660386
H         1.64740859039124       0.36466827588715       0.61283309501402
H        -1.01241538897556      -1.87956367555070      -1.16387508801889
H         0.65880101075954      -1.38935198350205      -0.69260388679248
H         2.46852698233922       2.90450249961185      -0.91763061342532
H         2.88191696298361       1.21305327610817      -1.39678093435231
H         0.44857923687691      -2.71402591060926       1.41283496104083
H        -1.21997540078310      -3.20900276155219       0.92991744271387
H         4.08356088829692       0.88849094155075       0.78767452680747
H         3.67847308892075       2.58329982856501       1.25917341354543
H         1.37414746246128      -3.80501866611778      -0.64751069527592
H        -0.29152026637417      -4.28981220771676      -1.14523314355904
H         5.98225293899616       2.44535719913463       0.35823715608250
H         5.36990279678519       1.72762421334632      -1.18133775181821
H         4.94173281827855       3.42842298911661      -0.73896079643419
H         0.90434462300853      -6.16587223103449      -0.04024326908697
H         1.14740637819003      -5.16821666879270       1.44382064473864
H        -0.52307358908081      -5.65670625458369       0.93921892670471
N         6.36947569204690       6.33779573437160      -3.51561638075724
S         7.83187321971930       6.98428625442507      -3.16915491536826
S         5.16767623884754       6.31344645370800      -2.40582260595175
F         8.67488746303351       5.93648342933924      -2.17316227878121
F         4.48555387356391       7.83760141261094      -2.30005883561117
O         8.60473336618134       7.19167175768352      -4.44045924042995
O         7.65892853918702       8.29787758180377      -2.45901974493261
O         5.71711425946004       5.93418121253311      -1.05918403628179
O         4.11521078705865       5.32656836491846      -2.82484091362921
