40
C12H26ClN optimized with ForceField in AMS.
N        -1.89758753022977       0.10256182352602      -0.03844208367203
C        -2.10274102079757      -1.11433900358822      -0.88229724981383
C        -3.00501305361533       0.06806499965339       0.96674843748189
C        -0.58033390969919       0.02583271317313       0.67344192958715
C        -3.46711406183003      -1.69147762339974      -0.55823748227970
C        -3.69540714340641      -1.27885830899714       0.86880458354676
C        -2.01470294934618       1.32739027477579      -0.89470402818949
C         0.66023372976629       0.04924632522981      -0.25233741734039
C        -1.80396842432921       2.65580621996572      -0.14598967861867
C         1.94554098205984      -0.13064469271152       0.56613212240903
C         3.18704522281852      -0.12660298552119      -0.33448915426404
C         4.46945146791214      -0.22096558456198       0.50022405806155
C         5.70725534274705      -0.27528570364305      -0.39061641449770
H        -1.35668409846082      -1.91192741296695      -0.65932822044667
H        -2.02699496266639      -0.90958507259099      -1.97521820000374
H        -3.78145329471273       0.84254089038368       0.76743529788647
H        -2.65610060263056       0.23842405062500       2.01173616552885
H        -0.54342548552099      -0.90819484154979       1.28101213128776
H        -0.48605891080219       0.85856288071034       1.40508144083133
H        -3.48987697415724      -2.79736793981048      -0.67281712061780
H        -4.23905905574287      -1.23011984766716      -1.21321943031386
H        -4.77959633615582      -1.20982864729620       1.10632121580186
H        -3.20693716459415      -2.00569771137186       1.55516463454049
H        -1.29490569923345       1.28956622364462      -1.74116481059082
H        -3.02216967835234       1.36008842300534      -1.36936202653037
H         0.59886595553049      -0.75885071254589      -1.01065112966300
H         0.72419460505201       1.02069980337667      -0.78344956404572
H        -2.03953116497898       3.49857047248490      -0.82952228787791
H        -2.46636018759718       2.73960892568501       0.73912834482974
H        -0.74886658149200       2.77412555181267       0.17318138920154
H         1.90095836981760      -1.09426328481060       1.11957011111714
H         2.02350251166194       0.69657789497044       1.30549021993763
H         3.20956865205131       0.81134965960033      -0.93189280237207
H         3.13418180506219      -0.99090441647465      -1.03333352956441
H         4.54674264097391       0.66329326178576       1.17019823438033
H         4.44205163129036      -1.13499524328283       1.13091913338707
H         5.78156819354234       0.64851392465193      -1.00256274990126
H         6.61697839187768      -0.35710303453675       0.24107041875947
H         5.66124336496508      -1.15856492936784      -1.06292217738596
Cl        4.63707700352265      -3.91657459716571       2.48173134621338
