37
C11H20F3NO2 optimized with ADF in AMS.
C         2.62238024154553       0.62433856412296       2.31397670062319
C         2.01377339483636       1.44184661837227       1.17366427296325
H         1.91957316554611      -0.84998900835528      -0.06944493266216
H         0.41469287631924      -1.44619733049697       0.77741500623404
H         2.91834275179715      -1.53715904867411       1.97188967050751
H         1.49287242613556      -1.15857812694163       2.95932803056129
H         2.33654127163302       1.01353108432893       3.30304749157236
H         3.71764657099826       0.66729255438430       2.23698280052282
H         1.73181167896239       2.47451671644920       1.42181026085011
H         2.66269992705258       1.39498253214447       0.28093838368958
H        -1.20011831478485       0.29344485658515       1.47441558858509
C        -0.32325791891912       0.88374692700947       1.76569205677492
H         0.02778545317937       0.56647692138276       2.75388959614231
H        -0.57850326827276       1.95151002352855       1.78401987243494
C         0.30447671715722       1.11437031528433      -0.61395394763552
H        -0.09716472709537       2.12795250823360      -0.46252173599770
H         1.22068260536496       1.16209178051773      -1.22337878627206
H        -1.41419092576863      -0.25017508288892      -0.55363801778238
H        -0.71216864825490      -2.31035179358961      -3.71033833360699
C        -0.11397226434689      -0.87724566764479      -2.19040413527042
H         0.65644054979541      -0.41264217114194      -2.82903038574615
H         0.42441181460371      -1.63011714899365      -1.59362831450656
C        -1.17336203657809      -1.56546559242808      -3.04518779769013
H        -1.70695870042736      -0.83661238084601      -3.67718190732176
N         0.76318689690921       0.67372152462805       0.76571262600549
C         1.26953946395049      -0.75895158757436       0.81763236769494
C         2.09551860008477      -0.82150102051093       2.10157643869984
H        -1.92322591909058      -2.08338100769936      -2.42447072916486
C        -0.72068987062605       0.20166629059204      -1.28650530499992
H        -1.35635863360352       0.85647546016861      -1.91075344551940
C         4.18256680209133      -0.10580088385840      -1.77471017826475
O         4.60948269253033      -0.43683526294957      -2.88266411692024
O         3.02441649246784       0.25582234925161      -1.38984686835688
C         5.20929860975278      -0.13862587592928      -0.58184779807343
F         5.26077557668046       1.06825353246610       0.09328926141273
F         6.47985456159304      -0.43776111745102      -0.93852597761313
F         4.83578052538098      -1.08035939187624       0.36839212803004
