26
C8H10F3NO3S optimized with DFTB in AMS.
N         0.71762016377139       0.31797021357678      -0.09774628654915
C         2.03179087834447      -0.17239893882894      -0.55288307269430
C         0.54875136665234       1.62254641933844       0.15768038308521
C        -0.26420988488752      -0.57156809258997       0.14570786005250
C         2.65927666791075      -1.07687232844367       0.50122513583313
C        -0.67138914496016       2.09070814472761       0.63003498985928
C        -1.47817606137317      -0.15784535287360       0.63635435439866
C        -1.69076483416165       1.19841118268616       0.88904812706901
H         1.88026607787036      -0.70931210158910      -1.49426980543398
H         2.66619668796121       0.69900267642057      -0.72683870053938
H         1.36258230545480       2.28935994409794      -0.09891043461295
H        -0.05076521824054      -1.61068904970950      -0.07275786379293
H         2.69347090727810      -0.56956233015408       1.46323825011817
H         3.67820463282888      -1.30815611847514       0.19425691193124
H         2.10148326057239      -2.00691454786921       0.60608301598603
H        -0.78184052531383       3.14974493699451       0.82241102175896
H        -2.25498591824275      -0.88760186762732       0.82466589347120
H        -2.64366846579756       1.53705033096336       1.27739239271720
S         3.14205277723436       2.02775622363921       1.94244784154570
O         3.39248726160053       2.40599554408256       0.55685728551136
O         4.10548142712404       1.12586872171028       2.52141074346174
O         1.74142790002607       1.64807700987690       2.17154361646596
C         3.30042021730196       3.61805989312531       2.87249095982070
F         2.39686823271914       4.48545659168862       2.41530423781581
F         4.50400289602989       4.15003117226736       2.71809127481777
F         3.08067116919645       3.43613518136491       4.16775177550308
