76
C22H34F18NP optimized with ForceField in AMS.
N        -0.01722002575937       1.99279014034664       0.01181671535265
C        -0.69977374320622       2.89973708674345      -0.96206405735680
C         0.64524944900319       2.90781947441276       0.99213069954848
C        -1.02808433624083       1.14686591555862       0.72683168150550
C         1.01126491077740       1.17359962271135      -0.70958443661798
C        -0.21629206307614       4.31486918716418      -0.71095742645968
C         0.13072737217409       4.31373841029915       0.75065948318978
C        -1.76952252225451       0.13036624990993      -0.17487451947287
C         1.77486624233670       0.16658848664630       0.18405025134767
C        -2.87665298428390      -0.58513545378318       0.60891939410109
C         2.89063725417997      -0.52634594306955      -0.60809961457750
C        -3.61779536257394      -1.59541581854127      -0.27512286377986
C         3.64987193657026      -1.53103885356289       0.26700308554843
C        -4.69051463414860      -2.34217867502444       0.52598699649008
C         4.72988784218826      -2.25823996491421      -0.54232162180781
C        -5.43914006417098      -3.34134009906796      -0.35092378888839
C         5.49381942341973      -3.25362726991864       0.32572686265783
H        -0.51839794441175       2.62244202226316      -2.02557187843060
H        -1.80564524887417       2.90934334819779      -0.82537077358728
H         0.46961816400083       2.61983376404163       2.05376544255516
H         1.75059645947375       2.94239993104253       0.85542955350246
H        -0.54980728836653       0.58931568839688       1.56218218224998
H        -1.78591869708211       1.80548623560128       1.21175738163957
H         0.54424040054134       0.61172000549141      -1.54850294688303
H         1.75481650902190       1.85132176596515      -1.19023603815835
H         0.69557438125012       4.51567256851533      -1.31609479129603
H        -0.99733278957284       5.07029270683295      -0.94606251720204
H        -0.78533171719195       4.49056786044343       1.35700962667903
H         0.89510131628710       5.08455564861167       0.99052168798152
H        -2.21989678552185       0.64182359679265      -1.05126110990482
H        -1.06038606850148      -0.63811608936156      -0.54661489608632
H         2.22031640638726       0.68251999012881       1.06031377102431
H         1.08136773004996      -0.61599644603788       0.55563108712990
H        -2.42475001885329      -1.11632076460249       1.47576210114019
H        -3.60205628920682       0.16550073988084       0.99336940724300
H         3.60306989898483       0.23791731922914      -0.98995236340320
H         2.44439401302760      -1.05889720439453      -1.47706646239897
H        -4.09738598133026      -1.05835310690540      -1.12321813421425
H        -2.89066077939822      -2.32959417972081      -0.68727514804917
H         4.12511268980376      -0.99205588725483       1.11630169024010
H         2.93490052070578      -2.27785526400377       0.67771924379641
H        -5.41968039039958      -1.61544814611342       0.94589032636122
H        -4.21472700689988      -2.89036428545631       1.36827992653052
H         4.25891949949302      -2.80692541131924      -1.38700490524889
H         5.44832092208381      -1.51924175004018      -0.95927726474742
H        -5.95221503309552      -2.81507643085066      -1.18389143276755
H        -6.20211292917091      -3.87081670754344       0.25801344844007
H        -4.73502856659025      -4.09213051960795      -0.76883749653075
H         4.80062547775748      -4.01637206668396       0.74027157060863
H         6.26197161389786      -3.76903662471111      -0.28874247146720
H         6.00219015086664      -2.72651779245994       1.16103896332817
P        -0.57008412029139       8.06811439910291       6.29008885261172
F         0.02549579885995       7.53177100366778       7.81375580702188
F        -2.23891126184564       7.68545476564419       6.08814487027246
F         0.97967472735917       8.80993589966022       6.38003715755240
C        -1.43108627982721       9.32696369516992       7.48828324598362
C        -0.21133370113531       6.17511310621589       6.09712369704921
C        -0.34639673471828       8.73400297566895       4.48887836467023
C        -0.51773158354899      10.20851050493410       8.38324295257100
C        -0.62617908960737       5.51066751525423       4.76685346349847
C        -0.49474315385637      10.25348993046397       4.27648204416701
F        -2.26359348726197       8.62760593898953       8.35373711614727
F        -2.23979455444360      10.17756710074192       6.76165986803642
F        -0.87777908261269       5.46935981405032       7.09499636369002
F         1.15145938183707       5.96089837810140       6.25000044636047
F        -1.30089315234422       8.14622816031031       3.67816818366938
F         0.89723299321556       8.35709161620700       3.99993728688121
F        -1.30629818014507      11.13550727816945       9.04187355982794
F         0.42235948434899      10.90370132149146       7.65358480679161
F         0.13019110272934       9.45507262241958       9.34585852771326
F        -0.44593071293747       4.14276717059803       4.87917193594740
F        -1.95928548347207       5.73636740915105       4.47929498713922
F         0.16016955194612       5.94328886965828       3.71830020588578
F        -1.81867567249461      10.63612215044322       4.37631519489494
F        -0.06866113115818      10.56882783752938       2.99825202083282
F         0.26927962450348      10.97846500697949       5.16350155462924
