32
C10H18N2O2 optimized with DFTB in AMS.
N        -0.38585817779813       0.03876902766331       0.22351370391443
N         1.74014506481012      -0.33336467352748      -0.02599671647597
C        -1.69970847481973       0.08880148244554       0.85332570075375
C        -2.61801519544953      -1.04817475102058       0.37233115088867
C         0.75195239068937      -0.25230129764628       0.90475526312109
C        -0.14882177550304      -0.12677004973049      -1.13863124012280
C         3.09331226006921      -0.75868359167606       0.29544769424626
C         1.16670144700159      -0.35614918656264      -1.29148088786663
C        -3.63436518169856      -0.58279051782735      -0.66834155218434
C         3.96777514165689       0.44661347234859       0.63173842762138
H        -2.15133460539882       1.06692344171303       0.64836906523595
H        -1.53150174825617       0.00752474593110       1.93061758958842
H        -2.00705015369604      -1.85265389622674      -0.04436674818400
H        -3.15552103643926      -1.44831094384244       1.23720082686678
H         0.93530159576716       0.15763690684443       1.88873308571927
H        -0.93508571752688      -0.03667159706306      -1.86541070730465
H         3.03653683798694      -1.44451324620268       1.14665135050934
H         3.49783792429694      -1.29481182958943      -0.56715957627693
H         1.75984243233895      -0.51667130805310      -2.17411181128495
H        -3.13638632261233      -0.18728288824237      -1.55404233890583
H        -4.27881065758219       0.19649621284243      -0.25743291693156
H        -4.25883047256059      -1.42311590418587      -0.97248849265664
H         4.00442521249438       1.13456609161607      -0.21288890337309
H         4.97917908688705       0.11279806274528       0.86053837553208
H         3.56708677360554       0.97579529427889       1.49616550250295
C         0.30990828966487      -4.31288893357356       1.68380875394568
C         0.27909031151534      -2.97367154276848       0.93099046042030
O        -0.05424695769201      -2.93736284208159      -0.24110317182565
O         0.62648393671381      -1.98589875807186       1.67394908579361
H        -0.36856588074207      -4.26019257878760       2.53348079969783
H         0.01002273314509      -5.11810756641738       1.01718538954880
H         1.31780688133207      -4.49150775893164       2.05451601858646
