39
C9H16F6N2O4S2 optimized with ForceField in AMS.
N         0.83102184435897      -0.00140916329327      -0.03970300262730
C         0.07156294358295       1.22309509195066      -0.42330400418807
C         0.07591708348360      -1.23050373657215      -0.41646987120325
C        -1.35666481541121       1.25616414330837       0.14760253234431
C        -1.35282471325809      -1.26393090510604       0.15461692187584
C        -2.12792959851207      -0.00599742594333      -0.23671091039032
C         1.15671633694145       0.00322386184753       1.40999628814865
C         2.11313087021406       0.00078197370064      -0.78359676205867
H        -0.01067605247484       1.29017516137267      -1.53337573951373
H         0.60992768074463       2.13852267073794      -0.08747319661619
H         0.61735423540651      -2.14208609040888      -0.07533911125840
H        -0.00618892849056      -1.30431521418910      -1.52606542288837
H        -1.88758182846111       2.14206380241509      -0.26256680919403
H        -1.33751800438347       1.37369886675751       1.25110742786189
H        -1.33357367576416      -1.37463607304357       1.25883879077107
H        -1.88188021766673      -2.15345857498335      -0.24998298085523
H        -3.11480979641749      -0.00569586627483       0.27463631585526
H        -2.31021229288022      -0.00918863502352      -1.33382789488329
H         0.25078119607725       0.00395111439238       2.04648335852590
H         1.75227810407354      -0.89519497389574       1.68694878586220
H         1.75020721481724       0.90461136287789       1.68170776005704
H         1.94165770506771      -0.01046646235583      -1.88280835603225
H         2.70640616725371       0.91177343808395      -0.54723160647523
H         2.72937334725308      -0.89103139074232      -0.52747542545442
N         7.11813150473882      -0.23228956106786      -1.90315269794357
S         6.73300695868053       0.77668584393587      -0.67075176602042
S         6.32077810939675      -1.63590106419247      -2.18700491020085
C         7.72028544104224       0.37378943714274       0.75445289019013
C         5.13809775975881      -1.38311137792999      -3.49329024487557
O         7.02530409576887       2.19143479728599      -1.08304835645847
O         5.27957636111942       0.64815890226366      -0.31442706599229
O         5.60734077782139      -2.10711518304061      -0.95005838555395
O         7.30774396590757      -2.68012712078525      -2.62569617990929
F         7.41181939080784       1.23849278957110       1.78711814898598
F         9.05982262168092       0.49584829802038       0.43846549547364
F         7.45934907784377      -0.92388257871377       1.15123053947837
F         4.44474898245065      -2.55641955413075      -3.72073591234220
F         5.79687863017019      -1.00800979754444      -4.64852802459303
F         4.25085067645749      -0.38861584452728      -3.13222477440189
