55
C15H20F18NP optimized with DFTB in AMS.
C         2.51512718620735       1.72634226531535       0.53804616887777
C         1.30208473323145       2.37790334346206      -0.11441347714432
H         0.87857243423429      -0.11253406732924      -1.12980631802616
H         0.20443840506668      -0.68757319965106       0.41666905398650
H         2.92974731230003      -0.34683500856957      -0.02966231421659
H         2.21954481049297      -0.16698048646754       1.57805831865995
H         2.66784829111770       2.10307289071581       1.55129723639375
H         3.41174906388476       1.94603862755511      -0.04313324530038
H         1.04469465482730       3.34974553658689       0.30195153974361
H         1.44409625914251       2.47693346552659      -1.19086116074411
H        -1.14093051037988       0.86871823381822       1.67934496890702
C        -0.34910085336284       1.59138290900129       1.49554515168017
H         0.45895491667022       1.43781144433182       2.20662347203887
H        -0.73958840727902       2.60248692826101       1.59270248163695
C        -0.93380224859767       1.66795768883339      -0.87576452963453
H        -1.35856775415939       2.63616092463412      -0.61053341040335
H        -0.46714694361997       1.76358388474853      -1.85785799011383
H        -2.00316741087082      -0.02789127442017      -0.01205468842193
H        -3.00279066760874      -1.91730226815214      -3.08971053946548
C        -1.94184429193018      -0.28709823063936      -2.15864457700771
H        -1.99568472175567       0.34791680174287      -3.04807265858820
H        -0.98091788663882      -0.81201236861542      -2.17864803264531
C        -3.07837286304246      -1.30637205151370      -2.19062463054478
H        -4.04388200439026      -0.79982030349061      -2.19452759608655
N         0.16920802387231       1.41940255325569       0.11292967022545
C         0.81342457424603       0.08188769308607      -0.05744824884867
C         2.20576128908166       0.22056804711603       0.55730856177673
H        -3.03177676874109      -1.96100450420566      -1.31910462619580
C        -2.02964393672480       0.59740219931623      -0.90849838185507
H        -2.99477721592718       1.11278178001393      -0.91430235392620
P         0.09940179018345       5.68779612611427      -2.38003648210796
F         0.97124568274764       5.07114810311567      -3.66815989955135
F         0.28647189291630       7.22780492965827      -2.95854368097060
F        -0.12086193221326       4.09840686685902      -1.70369648602661
C        -1.46163032428569       5.31545159382265      -3.52028547404028
C         1.82659301887121       5.66728875315655      -1.42715146902069
C        -0.92148167948076       6.47484821110802      -0.83492107505401
C        -1.72485652113544       3.82018916889849      -3.88506355689539
C         2.80825409593346       6.84974323949897      -1.61861427878673
C        -1.63473858567818       5.52893270097695       0.16605498133954
F        -1.30393637577710       5.97552912407642      -4.67524201201212
F        -2.62161674160123       5.72941677853088      -2.97666459756751
F         2.50026820965217       4.55969737249300      -1.81617821058802
F         1.64371152508633       5.50715485557247      -0.09571228178981
F        -1.86275446875153       7.31837523528995      -1.29248434955428
F        -0.07224153421898       7.22732292133779      -0.10591329457522
F        -2.51435554931740       3.73448497250902      -4.95350897822640
F        -2.35755338568834       3.20305222324114      -2.87366870624884
F        -0.62617765020172       3.11345344256405      -4.13960010399398
F         3.12116060772689       6.99608594669649      -2.90079499342190
F         2.29944279548360       7.99037592479864      -1.17128462376123
F         3.93990948924708       6.61373367784141      -0.94417085437918
F        -2.47305597082509       4.69527036456459      -0.45509701008309
F        -2.33033040384063       6.20103672972999       1.07647049884776
F        -0.75311646357925       4.75710118387875       0.83120740271003
