51
C13H24F6N2O4S2 optimized with ADF in AMS.
N         0.02281294110443       0.35866815250585       0.17094294608588
C        -0.61785193212372      -0.99578539967747      -0.04231053994208
C        -0.34836717330129       0.66234215956963       1.61295696671847
C         1.54120622486513       0.26235718740937       0.04285418531743
C        -0.35909592936604      -1.76574809689234       1.25122052186539
C        -0.22405430410275      -0.67415600674737       2.34611168176840
C        -0.55744950466331       1.37818350858204      -0.78218325055533
C         2.03309030659937       0.02206920555373      -1.37549508438126
C        -0.05982166764762       2.79657763127576      -0.57127973410748
C         3.49509747563354      -0.43561204033674      -1.36907109458736
C        -0.73259683221377       3.74066663037840      -1.56627868522197
C         4.04988009014878      -0.59406149147808      -2.78012854308683
H        -1.69152820475520      -0.80437533175977      -0.18852365316218
H        -0.21030459380652      -1.45793411701286      -0.94917876545212
H         0.30571360543172       1.45865361515962       1.99247069512667
H        -1.39100422567618       1.01497188405047       1.58458654670889
H         1.84585183727805      -0.55960596683934       0.70593858411115
H         1.95801783327913       1.18504402935552       0.46806889645322
H        -1.18581495562219      -2.46295501954851       1.44818080483808
H         0.55858164210263      -2.36640628915011       1.17591862018694
H         0.74207666994023      -0.74426064013386       2.86450835052186
H        -1.00959769389639      -0.75462182127780       3.11051882647411
H        -0.32932459576190       1.02257649579190      -1.79871174144035
H        -1.64985462397209       1.32477897524803      -0.64261993591869
H         1.42606548879879      -0.74489678813953      -1.89002466677017
H         1.95362815413916       0.94990574802524      -1.96610551161763
H        -0.26535529457095       3.12722705535303       0.45802100514671
H         1.03031911425150       2.84674030347276      -0.69706889231539
H         4.09399911495004       0.29554655279462      -0.80562205176360
H         3.56962064683796      -1.39381182067585      -0.82310845936479
H        -0.50032626305204       3.46228027681238      -2.60669718169391
H        -1.82820757637379       3.73982966571369      -1.44837719887144
H        -0.37730588109332       4.76803227952376      -1.40676661934916
H         5.09988685903672      -0.92126456657706      -2.75191706312424
H         3.47824559875423      -1.33694934853166      -3.36074933554515
H         4.01513002951479       0.36359317697257      -3.32359661232348
N         4.11521129204603       3.81055832934481       2.38280242105800
S         2.71554679996932       3.37297992076856       3.02069156621507
S         4.71561195873417       3.07470540358520       1.08502053267577
C         3.07658318290405       1.78223155242192       4.01869445202554
C         3.94458959649909       4.01475924057474      -0.41288134599113
O         2.34737414490512       4.33330880511664       4.04581889415129
O         1.69083014166574       2.93864775583613       2.05306691816090
O         4.25858114595193       1.69384479858004       0.90125177856856
O         6.12883926862902       3.38867966683735       0.98496245665691
F         2.89766781477424       0.65848787642215       3.26648110226949
F         2.20974986125427       1.70939747020510       5.06141696125924
F         4.33456146205465       1.77455013190115       4.49868460230513
F         3.39419896225352       3.11748440343423      -1.29059503136126
F         4.89189231678213       4.70432167308147      -1.07808322985517
F         2.96805190880960       4.87297609932052      -0.04038711486696
