38
C10H20F3NO3S optimized with DFTB in AMS.
N         0.61770483574317       0.12886636604936       0.14553580140083
C        -0.07435729894588       0.92877960516296      -0.91605913646494
C        -0.10603998983245      -1.17239405719062       0.32021284682638
C        -1.54428516609106       1.17213052675817      -0.60150732630264
C        -1.59863514517789      -1.01371005782842       0.59455806866820
C         0.68653357908236       0.86690207158415       1.46619609014300
C         2.02307138560171      -0.14566871277825      -0.35385559910384
C        -2.27893528849087      -0.16028461868749      -0.47345617686936
C         1.01026811364376       2.34756449225973       1.35016024473998
C         2.74374323309688      -1.29325410696198       0.33605531883467
H         0.00809475624377       0.36117254906156      -1.84729818444753
H         0.46950631772063       1.86686753130565      -1.03218912726408
H         0.36737556002252      -1.70124973169043       1.14885012881750
H         0.04304346027516      -1.74332005709714      -0.60063910909337
H        -1.96796113996717       1.75677892636594      -1.42198028573643
H        -1.65515959296958       1.75322092392388       0.31679016649737
H        -1.76352176530400      -0.57422900827192       1.58169237117696
H        -2.03380094914923      -2.01652960482240       0.60428780478501
H        -0.27194595546210       0.73598475159881       1.97037135466196
H         1.46154142839406       0.37015169428856       2.05196926170496
H         1.94736853263299      -0.35471988652798      -1.42383815145503
H         2.58280335869875       0.77801715726336      -0.21310334743087
H        -3.32163185509831       0.01254466066274      -0.19778777438534
H        -2.26155811836042      -0.68457095724917      -1.43442015969475
H         1.30022465096354       2.69744992939760       2.34055968144659
H         1.85355440233825       2.53085801086118       0.68952102966019
H         0.15270960093078       2.92717658092652       1.01079990502355
H         3.79813685730519      -1.20393232114276       0.07637289611185
H         2.66901430930514      -1.23029628253069       1.41847263681515
H         2.37868969216171      -2.26310737394358      -0.00102606872983
S         4.46650693379437       2.02851991029516       1.93090026840649
O         3.60971825193142       0.84102266666760       1.94669853131839
O         5.71558029311554       1.88790687408495       2.62626101897824
O         3.74341814183972       3.26519590363597       2.13588016561172
C         4.92980788003439       2.10187167328452       0.12513763873781
F         3.86420136338444       2.51770071598757      -0.59301708586356
F         5.23821141738874       0.88501160588576      -0.33918601721273
F         5.93674624199998       2.91543658861111      -0.14110389601247
