33
C9H15F3N2O3S optimized with ForceField in AMS.
H         0.48382170257315      -0.45186019035878      -4.91439175782252
H        -1.17374064749499      -0.68837159053459      -4.23251770097237
H         0.02229587719953      -2.04063477395703      -4.17849572852659
C        -0.09886583945139      -0.93934949255032      -4.10501350619697
H         2.48922224156249      -0.10441603533163      -0.35425917609104
H         2.42801155797480      -1.17655920438263      -2.80171402079216
H        -1.35467016762749       0.47661161421688      -1.96952238533587
N         0.38318729372853      -0.47996441495125      -2.80878234972749
C        -0.31611502643959       0.18605097657323      -1.86932729139191
N         0.43887913775367       0.42395456229257      -0.77895317306543
C         1.64928380441943      -0.11123059914011      -1.03624397633404
C         1.61646654692639      -0.66675552007039      -2.29890832844931
C         0.02679047351250       1.10902941101727       0.44293451284891
H         0.81845385253346       1.82873692627008       0.74677260880308
H        -0.90654764530511       1.68408373429730       0.25398810804944
C        -0.21894361675941       0.09087817972043       1.55843918991633
H         0.71732805122983      -0.47822951621797       1.74981973452574
H        -1.00506290055088      -0.62345366855344       1.22753159659291
C        -0.66899888097716       0.78328421269406       2.84873643245350
H         0.11700641482878       1.49341000588020       3.18700671812956
H        -1.60440393671444       1.35490890323134       2.66179015252651
C        -0.92602527313938      -0.23518941525876       3.95523862471278
H         0.00088622584306      -0.80649561502446       4.17576947167680
H        -1.72797667398088      -0.94086691364533       3.64986141944855
H        -1.24797626227293       0.29094654465610       4.87833472377230
S         6.03330448147699       0.02110438893768       0.53735175383192
O         5.36280754840718      -1.35286867912738       0.68161590225113
O         7.45505369162612      -0.22944620536618       1.06109924801498
O         5.38889283140516       0.84368865664302       1.66259254768807
C         5.94145898048602       0.76198206020700      -1.11738680747732
F         4.61981045856256       0.95669402554606      -1.46603952654665
F         6.53846585382763      -0.08228778744206      -2.03364506664019
F         6.59786380753636       1.97755073482907      -1.11473660397266
