51
C15H29BF4N2 optimized with ForceField in AMS.
N         3.08491911943516       0.90927455331015      -0.00082226621215
N         2.92064817202329      -1.30268456948004       0.18286152872524
C         1.48020746018580       2.76624245790674      -0.27212998508397
C         2.84536356908098       2.32436028410318       0.27770705456107
C         1.00402112923181      -2.62505762431775       1.02127778051911
C         2.50565160755050      -2.60993306958767       0.69208072101716
C         0.31817427893484       2.10828211463811       0.48741844554272
C         0.13893159636749      -2.30038011244031      -0.20676627280716
C        -1.03991910697420       2.55629979331638      -0.06224601232693
C        -1.35192709301493      -2.28520033363608       0.14998706437302
C         2.83054346572379      -0.12259883444273       0.82768334588518
C         3.35740335240611       0.36325194159384      -1.20293627773339
C         3.26279806171665      -1.00846156624307      -1.08753765119527
C        -2.18339560198725       1.87732001125716       0.70163452016024
C        -2.19290593222606      -1.79011579164625      -1.03350606868607
C        -3.53734418327827       2.18806370813251       0.07281736162792
C        -3.67320614780906      -1.71889580685718      -0.67204801769108
H         1.40135848488977       3.87031708998291      -0.17824799180513
H         1.41697155711873       2.51279453382109      -1.35332392568374
H         0.79964287312668      -1.88873859692247       1.82925940529787
H         0.73397264833346      -3.63235955111006       1.40627165358342
H         3.64702948904842       2.93162439659161      -0.19553823591338
H         2.88894896101057       2.51061975815546       1.37364581908383
H         3.08541437300733      -2.84441192066636       1.61040847105929
H         2.72632957667722      -3.40067147484379      -0.05880939819787
H         0.38538814668111       2.37176353136149       1.56605216368098
H         0.38934201253083       1.00440599802399       0.38938500846447
H         0.32170821753941      -3.05810545386788      -1.00040273266570
H         0.42065635176318      -1.30206530432399      -0.60508355480969
H        -1.13641368972807       3.66026993604492       0.03556496448574
H        -1.10217469432979       2.28844459282965      -1.14058759427557
H        -1.51604675151254      -1.61428743320612       1.02182594966066
H        -1.67292807977368      -3.31203458314679       0.43248555951024
H         2.49398897898989      -0.01177985047542       1.85146605914169
H         3.54165000280957       0.92273579851415      -2.11140830340803
H         3.35645485880641      -1.73026583254492      -1.88904239597752
H        -2.03669067033456       0.77682729001271       0.69897726088275
H        -2.18541737305394       2.22435949964006       1.75806726246564
H        -2.06450943166783      -2.47714561835336      -1.89827419686611
H        -1.85262592741453      -0.77606209962611      -1.33884454282723
H        -3.73010549743405       3.28170197181012       0.09150447040148
H        -3.56710384750663       1.82486275271346      -0.97685172397096
H        -4.33769470244569       1.67456735068718       0.64624972840899
H        -4.24757859393781      -1.32946393239889      -1.53885235044157
H        -3.82925809341339      -1.03655296880619       0.19050644474431
H        -4.05647183331637      -2.72907693404292      -0.41468475171384
B         0.22342386439775       6.07353098996272       2.78503467127882
F         1.39723167611462       6.48600787691447       3.47049774667765
F         0.53280274802392       5.83090082204090       1.42093309424010
F        -0.75901101165292       7.09571615358532       2.87205043654755
F        -0.27733434061372       4.88308062673606       3.37630925466523
