44
C12H24F3NO3S optimized with ADF in AMS.
N         2.68127983521187       0.58230899660997      -0.24106536725724
C         3.37491279659101      -0.53809449410568       0.51964051140766
C         3.56710822092446       0.71469657522737      -1.46085594933084
C         1.26248902044077       0.21516578093890      -0.64533847322535
C         4.85709952680500      -0.20431342147367       0.41390388876846
C         5.00134682830218       0.53614658522063      -0.94441492381503
C         2.70065732425876       1.85273400650221       0.54337034303807
C         0.29762041099171       0.11502204077210       0.52093817513013
C        -0.97315337538130      -0.62551970533152       0.09085131658109
C        -1.83791925944222      -1.00071147522074       1.29159329369851
C        -3.02178509087725      -1.88222713405716       0.90363157296841
C        -3.83348570897976      -2.32968725697197       2.11598817476817
H         3.13448780849906      -1.46158901109577      -0.02428246470803
H         2.96593278139006      -0.62280189123138       1.53289680140344
H         3.36294415985938       1.67692240315082      -1.95099629866206
H         3.26992336805797      -0.10398247202743      -2.13189318448694
H         1.34444893115940      -0.77386161123346      -1.12455776085519
H         0.95276659148657       0.97152399538457      -1.38614403477438
H         5.44319642673361      -1.13231047682319       0.45486685943490
H         5.19177816586610       0.42835284485586       1.24994367818799
H         5.50732148982085       1.50556926390371      -0.82313917461066
H         5.58732303998097      -0.04586011603715      -1.66954274736274
H         2.17365714871204       1.69089404851343       1.48965411900253
H         3.73946401661737       2.14296371770404       0.73730715434476
H         2.19582764452399       2.63305962253284      -0.04117812810843
H         0.75729660391398      -0.50061691804158       1.31179928381832
H         0.04299469421220       1.10807977197818       0.93002383403420
H        -0.66112394441707      -1.55705132677209      -0.41003961117499
H        -1.55220388360106      -0.02513656461053      -0.63573365838849
H        -2.19924257271616      -0.09240716672662       1.81145100421905
H        -1.20111934738150      -1.55558462132464       2.00327869557481
H        -3.67197177475260      -1.34278487006700       0.18988852524904
H        -2.63428126902602      -2.76909738067262       0.37186171191971
H        -4.23449094202199      -1.46224938211031       2.66579611715216
H        -4.67986013368928      -2.96845009001589       1.82262013356448
H        -3.19911305328304      -2.90376139452237       2.81067579670678
S         1.67237074601927      -3.47659365474999       0.73684663586378
O         3.06559195580734      -3.93872697190650       0.82312370406011
O         1.26906943187017      -2.98717569184312      -0.60508928941865
O         1.22076555541653      -2.62131781560829       1.85627670385163
C         0.63918901043146      -5.02682586023615       0.96524899235233
F         0.90938641582133      -5.61812019610899       2.15777567188597
F         0.87823383426348      -5.93324958264762      -0.01757231122562
F        -0.69174683141962      -4.72674913202120       0.94266451451817
