42
C10H22F2N2O4S2 optimized with ForceField in AMS.
N        -0.51157638374848       0.01480332635790       0.00423229628665
C        -1.43607592497344      -0.54947561260446      -1.02738340510224
C        -1.40868415944825       0.60594308651079       1.04460325632477
C        -2.83928032451248      -0.05908012742043      -0.72626554453434
C        -2.82744404008622       0.15107606325443       0.76132487903919
C         0.33463102091939       1.08437900672783      -0.61923960713820
C         0.30827736941454      -1.08034440573469       0.61833420639592
C         1.35224479225861       1.74123215896222       0.34336291019637
C         1.30337959042186      -1.75706336443370      -0.35394375288224
C         2.06709645788950       2.90835285129611      -0.33304152728461
C         1.96216333455222      -2.96979104143663       0.29686924526353
H        -1.15502298048847      -0.27369321986933      -2.06960472105432
H        -1.47100230058595      -1.66292058108313      -0.99815631468740
H        -1.12226338755693       0.32654120300851       2.08435762495060
H        -1.41584517906044       1.71972357851186       1.01074381184901
H        -3.02088057970753       0.90908811261935      -1.24393041561825
H        -3.61339873365340      -0.79717063289314      -1.03018536969722
H        -3.02714610787624      -0.81213833598464       1.28149770335927
H        -3.57876053280190       0.90869197043302       1.07434699024268
H         0.89127230917657       0.68099543712982      -1.49399865755449
H        -0.32378735946188       1.88320190216711      -1.03382120598426
H         0.88025480284788      -0.69755606082600       1.49243180095564
H        -0.36931457229849      -1.86319858135122       1.03276241230839
H         0.84772387252309       2.12056515800819       1.25598050178476
H         2.12479622453541       1.00807902787658       0.65345164149185
H         2.10787929639506      -1.04909193738496      -0.64098180445776
H         0.79003868590053      -2.09226091633272      -1.27895158157299
H         2.62464783801703       2.55260789236435      -1.22567920558133
H         1.33503945001068       3.68411687379485      -0.64281714204465
H         2.78853226403994       3.36535879969789       0.37665519741862
H         2.49744443295356      -2.66891852454211       1.22290570872910
H         1.19564500353648      -3.73330719028036       0.54506207593384
H         2.69393015760085      -3.41958646296355      -0.40669675934532
N         1.49247864064315      -5.24904012371438       5.50803292451229
S         0.71592786599233      -4.44846085700182       4.31083760662012
S         3.07870623337193      -4.98920949523057       5.81544608533558
F         1.23115609925982      -5.04206280643056       2.83440316333562
F         3.24235036876005      -3.56476550147350       6.67829170690253
O        -0.76534227592847      -4.65779655815876       4.44439330535296
O         1.03049156066414      -2.98043428917392       4.38462309152891
O         3.84395147763127      -4.87084280252517       4.52696053966321
O         3.62548016697268      -6.12789348737105       6.62815906945820
