23
C7H8F3NO3S optimized with ForceField in AMS.
N        -0.72235745941859       0.00635998628413       0.01557585771444
C        -0.04481435090058       1.19444613684360       0.00040798650451
C        -0.04327779165923      -1.18065623224079       0.01286176954281
C        -2.18665338948792       0.00487179142487      -0.00391140492962
C         1.35239513807466       1.21335477308454       0.00162758676283
C         1.35324549966605      -1.19715897233421       0.01612801526599
C         2.05315103596169       0.00825402092372       0.01166973914146
H        -0.58208115433096       2.13546475194335      -0.01305090224385
H        -0.57864514677914      -2.12292139375795       0.00772007063307
H        -2.58789526881049      -0.89156040514839       0.51699825828944
H        -2.58928742682826       0.90110549174847       0.51605625511851
H        -2.54381596989036       0.00372268253644      -1.05518351605934
H         1.88617813471781       2.15486935677561      -0.00716874235011
H         1.88616707224974      -2.13732183659778       0.02019304824286
H         3.13551163448631       0.00835218885342       0.01236052258367
S         3.68649723499966      -5.06839362301655       0.58418527837477
O         5.15506152766920      -5.09653102236800       1.03298841749164
O         3.68548752678048      -4.01863839136861      -0.53666477461561
O         2.97976776622805      -4.34769069107984       1.74208418972403
C         2.98679859111012      -6.67848859810609       0.13092837451493
F         3.09961323951604      -7.54727211626515       1.19909371851947
F         3.67382437480884      -7.18988338602985      -0.95304902638950
F         1.65409024943687      -6.52532842360494      -0.19936235403641
