40
C12H22F3NO2 optimized with ADF in AMS.
N        -0.26226810448129      -0.52143871772094       0.47117636514258
C        -1.37982021904266      -1.26312728753747      -0.25787707206717
C        -0.84773817461229      -0.25903190217515       1.87047091491762
C        -2.65189905684414      -0.61858113817292       0.25974337684697
C        -2.35903010310880      -0.50499420660932       1.76102806653327
C         0.02871455406413       0.77790324609857      -0.24273284764751
C         0.96868432323947      -1.39372477563863       0.59019367440274
C         1.21808950829084       1.55770437322741       0.29418520759110
C         1.60060078105741      -1.78713292123213      -0.73098381333744
C         1.31629351216376       2.91421151506349      -0.40333564542577
C         2.77137082056805      -2.73210161526576      -0.45416725091760
H        -1.21481781647295      -1.18826563698673      -1.34017994454973
H        -1.31205401777832      -2.30873452561043       0.10179792492490
H        -0.40241130996209      -1.00361465897492       2.55475767155862
H        -0.58067332829048       0.76645543326967       2.15389808887746
H        -2.83623523021482       0.36579399471422      -0.20296184254977
H        -3.52317112169615      -1.25584296981028       0.04825360157262
H        -2.57136210130648      -1.46924609893271       2.25007138927702
H        -2.94527014000475       0.28203539021936       2.25600738832024
H         0.18862564568766       0.52806668283002      -1.30283671969760
H        -0.88943042703886       1.38001113651824      -0.17286845728995
H         1.67645499175049      -0.86244634820382       1.24311209607302
H         0.61583361108511      -2.29204401105782       1.11052264036656
H         1.12608701482817       1.70525524611907       1.38289325023090
H         2.14756227507519       0.99103236269624       0.12463905270051
H         1.95327753941126      -0.90770974028207      -1.29754392096227
H         0.85625575370973      -2.31154609697516      -1.35290520593577
H         1.41942201508700       2.79487299570012      -1.49329209619518
H         0.42200226000765       3.52795049421142      -0.21243201227604
H         2.19226705721314       3.47202530708983      -0.04299090154427
H         3.54387584619482      -2.23710478259639       0.15498136981639
H         2.42594998408100      -3.62165927165928       0.09395899174444
H         3.23733829244804      -3.06076839904957      -1.39394418353552
C        -0.32603290986755      -3.84175393439303       2.47122727095421
O        -0.30074370271549      -2.90828766299883       3.30789055790223
O        -0.80107874976527      -3.88449065983071       1.30372851883669
C         0.46354265406786      -5.12664543739846       2.88673434202351
F        -0.03343822901536      -6.26936840290907       2.33389383320529
F         0.52163544390730      -5.32302129678580       4.23298812541969
F         1.77292749347970      -5.01139207525027       2.44722233189299
