53
C15H29F6N2P optimized with ADF in AMS.
N         3.29662078696948       0.90242922933658       0.10460929258675
N         2.95029038966661      -1.24094452507433       0.17929626112441
C         1.90004975228243       2.90811147124496      -0.30657515540803
C         3.14381944284241       2.34094322227251       0.37284897943937
C         0.95014904604636      -2.58957034291889       0.77168802773755
C         2.46760347078617      -2.55708854979420       0.63332571638795
C         0.59544773213848       2.35460905171427       0.25880723420781
C         0.21811745591671      -2.43703735838778      -0.55897584654395
C        -0.62614862990429       2.79733513151913      -0.54237443634445
C        -1.28333233619264      -2.22922849392907      -0.37369920875684
C         2.70427912714665      -0.07789795161512       0.80168394922708
C         3.91689192821710       0.35614722408684      -0.99512521576282
C         3.70238663460789      -0.99027258975481      -0.94633742704199
C        -1.91209682581158       2.13697685467890      -0.05007721207486
C        -2.02773863990469      -2.08448917470567      -1.69895080922663
C        -3.11701976283872       2.48408548376149      -0.91966331034758
C        -3.51500748538882      -1.80214172167132      -1.50805769796973
H         1.93688622451338       4.00533754128652      -0.18546568884920
H         1.95734313981761       2.69245489859256      -1.38613842505165
H         0.63035264444552      -1.79678188571362       1.47380724425250
H         0.68363139741839      -3.54470211960050       1.25870143604471
H         4.06178599976997       2.82521048898021       0.01008366926822
H         3.10343467770135       2.46141130653436       1.46752007828348
H         2.97377405069699      -2.79003724076741       1.58331933374951
H         2.80486801892085      -3.28111114147271      -0.12324666232890
H         0.48600161494572       2.64532133261635       1.32267720062926
H         0.62053694682653       1.25289366941138       0.21347950103294
H         0.39910249184780      -3.33488701125107      -1.17897909101641
H         0.62448506582550      -1.58316602946399      -1.12394132265366
H        -0.72782318026354       3.89823462277250      -0.50137160232813
H        -0.46136549639608       2.52353458495047      -1.59809003660579
H        -1.44237093309217      -1.31374831717776       0.22860970072305
H        -1.71442027011626      -3.06535319766702       0.21123414852360
H         2.12668130946000       0.05149427347872       1.70674252556609
H         4.37083326359088       0.96895038622756      -1.76302224009124
H         3.95681695186698      -1.76770842834893      -1.65422438498961
H        -1.76463043226343       1.04167970819263      -0.05547649265873
H        -2.10549956532569       2.42471897948090       1.00106117377760
H        -1.89475955573943      -3.00797209140903      -2.29226723664645
H        -1.56016915137523      -1.27759424110611      -2.28658983224735
H        -3.28579676196249       3.57335837053372      -0.94468745495376
H        -2.95100061096626       2.14737876684501      -1.95499126502515
H        -4.03626801437953       2.00702709764188      -0.54744665904978
H        -4.02839530034096      -1.70444190451314      -2.47627104957126
H        -3.66763204799249      -0.86200870242308      -0.95269726003833
H        -4.00757752864425      -2.61054032871484      -0.94159909890206
P         1.37561937183975       0.41669965112922      -3.69770370167714
F         0.09185390355827      -0.58536282186781      -3.92812964954817
F         1.11443730727440       0.33974117314276      -2.03184240907708
F         2.38479931168930      -0.90104805056504      -3.56275795196011
F         2.68206041665370       1.42362607281627      -3.40022099755241
F         1.66216686113369       0.49926107478832      -5.30331154334369
F         0.39000995938169       1.73740177827723      -3.76154298321894
