61
C17H24F18NP optimized with DFTB in AMS.
N        -0.31266708784975       0.43599168772576      -1.03569198689370
C        -0.89766904434038       1.39866967241782      -0.04427910814104
C        -0.86676349665056       0.75861399290198      -2.39609979726366
C        -0.62933537023795      -0.97546069850085      -0.62904660535478
C         1.17508533690573       0.66181344805459      -1.12691725356553
C        -2.42364553492470       1.42308696614237      -0.05752479930514
C        -2.38429522861505       0.75328786719163      -2.46066537985515
C        -2.96279407463605       1.74109945480910      -1.45177424083575
C         0.02164076143025      -2.05850392980320      -1.48975380740016
C         1.95428062722141       0.43202007949736       0.16473348981016
C        -0.51211351663312      -3.42614913093976      -1.06501993703029
C         3.44465815293048       0.62846251571477      -0.11612498730059
H        -0.53551075974489       1.12133356608532       0.94759946518742
H        -0.50857712855204       2.38770450686033      -0.30130910659902
H        -0.49416050943984       1.75143278195396      -2.65199245549590
H        -0.45315177574172       0.04156485006002      -3.09987080982149
H        -0.32020226708704      -1.08817133684344       0.41331176143207
H        -1.71431100139836      -1.08547058187016      -0.67165743458234
H         1.54586634216667      -0.00259635317478      -1.90734637925096
H         1.31274908116730       1.68988443191796      -1.46923279960462
H        -2.82378647746043       0.46800824941315       0.29377421040054
H        -2.73915665109737       2.19407943356892       0.65059287659557
H        -2.65363146017755       1.04868143844499      -3.47798704666957
H        -2.78481703387328      -0.24928170768487      -2.28824055749129
H        -4.05322608377996       1.67936607272353      -1.44640852949498
H        -2.67896869581446       2.76047897134986      -1.73073088712126
H        -0.20477976661541      -1.90046413122238      -2.54518720494052
H         1.10699437490387      -2.04527254912950      -1.36769896510601
H         1.63818644313383       1.13766499989362       0.93802958176876
H         1.79165237011705      -0.58129149073192       0.54112841485269
H        -0.04063810368039      -4.20099279757902      -1.66777721624844
H        -1.59120822727374      -3.47917976405587      -1.21193712328892
H        -0.29136073300466      -3.61787968949793      -0.01431316380420
H         4.01365514096774       0.47245277246785       0.79945866932214
H         3.63514767050834       1.63838750784944      -0.47920524175055
H         3.78802809924750      -0.08266615679299      -0.86742464002635
P         0.42504712568055       1.10014115892690      -6.29017184022938
F        -0.42401876502003       2.24164841298760      -7.16165568147307
F        -0.49514648597740       1.50656536484747      -4.90115772596952
F         1.35238227368203       0.67052750658675      -7.60792489545564
C        -0.93038951149230      -0.21590181450430      -6.79544804070804
C         1.68742435395027       2.54897439251820      -5.88236632758875
C         1.38401462504177      -0.24687485705892      -5.11935966408148
C        -1.85148705961101       0.10380842190436      -8.00296669267957
C         1.29662952332032       3.56947499098821      -4.78076996649569
C         2.58608289293435      -1.10605754115250      -5.59077283626537
F        -1.76132604193567      -0.48111045107488      -5.76256775900231
F        -0.29568430110890      -1.36513700238987      -7.09241209775267
F         1.87940339720669       3.26374160675861      -7.00110675615260
F         2.89046683660060       2.05724956928681      -5.52691073683984
F         0.48335361259215      -1.14362942677308      -4.63650846915483
F         1.82155017558652       0.41899639721165      -4.01284471598585
F        -2.55010542947427      -0.98604213504123      -8.33744799368910
F        -1.15842928209421       0.48462077347723      -9.06772000190326
F        -2.72578335628428       1.05872148672669      -7.69398541594862
F         2.20259877299651       4.54299624017784      -4.69713997621082
F         0.11521860728856       4.12782996108294      -5.00983531788867
F         1.24192365359313       2.98529033934988      -3.56665341181710
F         2.21430479939408      -2.00900986669643      -6.48781828001160
F         3.08939581793694      -1.76707606535756      -4.53399077630918
F         3.56272162122213      -0.37413710850000      -6.10771466901418
