29
C9H12F3NO3S optimized with ADF in AMS.
N        -0.53993559583450       0.09979714383960      -0.58509969896048
C         0.84730947398554       0.19836082957786      -1.11168000612727
C         1.86109484341170      -0.32127433733525      -0.09792154714616
C         3.26800006409153      -0.23724149687820      -0.68483682252592
C        -1.20868374067006       1.21370347135736      -0.21107602566175
C        -1.09901022423608      -1.12641356694042      -0.47096721941148
C        -2.49439763351820       1.13014829334283       0.28706487286452
C        -2.38373797711574      -1.25251325133124       0.03211752933623
C        -3.09602501750702      -0.12149983875608       0.41301707096499
H         0.90300784489007      -0.40500360517461      -2.03793888928571
H         1.01952397844936       1.25669306974407      -1.35801915397268
H         1.62211038947142      -1.37633095932441       0.11875051562000
H         1.78172932385876       0.25633234493657       0.84126690880941
H         3.31912197713675      -0.82127396543443      -1.61573909852760
H         4.00283893240056      -0.64517349477490       0.02444896948851
H         3.55097043267980       0.80437378338519      -0.90689711424439
H        -0.67823994588302       2.15621589415875      -0.33219850525077
H        -0.47766072899957      -1.97374765409834      -0.82276392072358
H        -3.01638329003811       2.04378618832108       0.57019530368750
H        -2.81480298627229      -2.25141454202952       0.10647498624377
H        -4.11210112637200      -0.20876952793590       0.80146838390533
S         1.03631482374091      -3.07261178613045      -2.93934466513500
O         1.60465909292128      -4.28858213948056      -3.50768695576070
O         1.67198979642347      -1.79105465103885      -3.31429797329520
O         0.67105233452087      -3.15228713963021      -1.49589643389268
C        -0.65476197039488      -2.92358712500703      -3.75385019693325
F        -1.50699027835683      -3.90052219075491      -3.34023457208403
F        -0.57052539601710      -2.97924941338133      -5.10251419167478
F        -1.24385797086663      -1.71892590902669      -3.42627817940681
