44
C10H20F6N2O4S2 optimized with ADF in AMS.
N         0.78393779182556       0.34107100608653       0.39132046875711
C        -0.49933318594567      -0.15795585401938       1.03063304586175
C         0.53617513194578       1.61671329816399      -0.41289255351661
C         1.31901509545482      -0.73775249188083      -0.53265541777161
C         1.78238390077852       0.66319491159017       1.50011933673014
C        -1.65115427728164      -0.41201727555467       0.07667815629159
C        -0.14637952786168       2.73626282148047       0.34448161165283
C         2.65890182902817      -0.44034116533435      -1.17458367850651
C         2.29420836733147      -0.51319053937729       2.30126375594787
H        -0.22943651650474      -1.08134159274153       1.56070414495980
H        -0.76950351097826       0.59384329700642       1.78495185777076
H         1.52634153465936       1.95208643651579      -0.74444592361641
H        -0.04084079618536       1.30596362014371      -1.29717962511020
H         1.36819184085442      -1.65373681063321       0.07387672764973
H         0.55273694243674      -0.88401191408698      -1.30581774752049
H         2.60823069933749       1.19665155303091       1.01526124694956
H         1.28479558783103       1.38163520427522       2.16352891550189
H        -2.50993097116072      -0.75066976486833       0.67599250846204
H        -1.96484060413839       0.49368227455608      -0.45980142716626
H        -1.43642671277063      -1.20491126694081      -0.65282265142233
H        -0.22841784201192       3.58632053370396      -0.35068909957404
H        -1.16202919065586       2.47846880436327       0.67653064828650
H         0.45884357338776       3.09371070898366       1.18979627024299
H         2.94327629542295      -1.32258275202729      -1.76819893515232
H         2.61822483782861       0.41671060029855      -1.85843988454530
H         3.45500485908927      -0.26063207475524      -0.44091660716750
H         2.98092099917480      -0.08548381141908       3.04952289552172
H         1.50292007483287      -1.04034205875814       2.85327708356098
H         2.86633337544695      -1.23586926125833       1.70209083534790
N         2.70768457588391       3.88163844227500       1.79363126637432
S         2.96065954571704       3.36704426351734       3.30470502189079
S         3.83255930747656       4.57327595571182       0.86338978377213
C         3.26299875342983       4.87249800344723       4.42954303281579
C         4.69382841986840       3.13662240326842      -0.02075214761671
O         1.65460865432562       2.86828957872296       3.75511282698458
O         4.13664576307367       2.52220181123196       3.50500713217420
O         4.91043396634427       5.24394052394551       1.57444667734024
O         3.13106726383962       5.21828275366902      -0.23894847756868
F         2.91237544690820       4.51426497104334       5.69080462725988
F         2.50106643812449       5.92192889679919       4.05080038440049
F         4.55554572130469       5.23865533565223       4.43546352566909
F         5.72275488362995       3.60832008672539      -0.75508967424763
F         3.82319049853133       2.51139729777669      -0.88402194308519
F         5.16174404187068       2.18961544367061       0.82482475131111
