34
C10H22ClN optimized with ForceField in AMS.
N        -0.50616404024005       0.01368093168303      -0.01373066375194
C        -1.42763038075061      -0.53335512481563      -1.05708986179345
C        -1.40862491573308       0.59064788803614       1.02987082999304
C        -2.82781254823093      -0.03440817359198      -0.75493070971256
C        -2.82112461840133       0.12294009361919       0.73896619528735
C         0.34304391417665       1.08922902029668      -0.62068775935226
C         0.30653606412294      -1.08928961721348       0.59426233075985
C         1.34672843401262       1.74661402223240       0.35540922338095
C         1.30127942807848      -1.77081998104852      -0.37393751278561
C         2.06763684225826       2.91409227280268      -0.31358622254323
C         1.97609113369767      -2.96443963667131       0.29771056423893
H        -1.13922573307646      -0.24786321156112      -2.09494623529931
H        -1.47138053413213      -1.64680513712121      -1.03832064089280
H        -1.12088275111309       0.30824678614732       2.06863314983045
H        -1.42692525753061       1.70457578349013       1.00052026458585
H        -2.98865048832860       0.95597206389792      -1.23692033062328
H        -3.61019970385122      -0.74842139468143      -1.09179281390201
H        -3.00098139358076      -0.86311835986397       1.22252702524285
H        -3.58425445422403       0.85484974009539       1.08154871128164
H         0.91031487519351       0.69270756928240      -1.49140235731778
H        -0.31395448079305       1.88816964410348      -1.03708473006081
H         0.87607459981867      -0.71511273159019       1.47344852485930
H        -0.37712270872813      -1.87182617507968       0.99646186453382
H         0.82922172664256       2.12671491695190       1.26039846980613
H         2.11478726017326       1.01308872741197       0.67550112281889
H         2.09697021635017      -1.06023369829864      -0.67832714609185
H         0.78335053711967      -2.12786521296585      -1.28814684634500
H         2.63158157572457       2.55952444052243      -1.20267960154899
H         1.33886868602560       3.69123364159205      -0.62839739476674
H         2.78387487111690       3.37019162377721       0.40182772630080
H         2.54201377874071      -2.63219872018903       1.19423727503828
H         1.21855650694252      -3.71764385383828       0.60255916538279
H         2.68446348949217      -3.44205235523669      -0.41137598137550
Cl       -1.65464743667284      -2.49315307307531       3.62431794132220
