50
C14H30BF4N optimized with ForceField in AMS.
N        -0.07008919945600       1.47950029980770      -0.00059502782549
C         0.52662575265086       2.41309407663448       1.00486350075977
C        -0.74108056097557       2.36615448461036      -1.00057716319330
C         1.01120102939617       0.69332204683872      -0.67956104626131
C        -1.08090126754520       0.60124194892994       0.67401353897113
C         0.00816125576966       3.81127652153001       0.72588076856568
C        -0.29676741598616       3.79300283692650      -0.74479011059498
C         1.76338937139477      -0.29811336367468       0.24131724199232
C        -1.77183042160248      -0.42395076800120      -0.25771766387669
C         2.97844819961031      -0.89123677349162      -0.48303577423942
C        -2.87556662524980      -1.17820862668421       0.49530390510191
C         3.71670207133375      -1.90353401730142       0.39920174462347
C        -3.58991958133018      -2.18038753175976      -0.41807794448614
C         4.91423366280777      -2.49790897256628      -0.33729708294047
C        -4.66126662162809      -2.95309410331892       0.34725740968050
H         1.63733904609975       2.46027310832548       0.93087310210763
H         0.29832275086874       2.13184675363871       2.05845147293561
H        -1.85040359768645       2.35236906548255      -0.89818749124927
H        -0.52177215106411       2.08659038679348      -2.05646969570728
H         1.75389175793062       1.39503661111330      -1.12670430898756
H         0.59850585184484       0.12149052891630      -1.53969497028397
H        -1.86931142582626       1.23606287831755       1.14223196803534
H        -0.61407706694386       0.04681599569276       1.51783232219202
H         0.75970585355316       4.59137485862566       0.97701119669290
H        -0.92540136286966       3.99093898876555       1.30405724941492
H        -1.08877480409851       4.52820159942573      -1.00687704262738
H         0.62594825754352       4.01250152744185      -1.32650805521123
H         1.08996755665553      -1.13184352273274       0.53081024773742
H         2.10810411881053       0.20799596124944       1.16715080393099
H        -1.03461328649310      -1.16797789029067      -0.62407811727131
H        -2.21882681095872       0.08588677860823      -1.13653271586735
H         3.67663058281704      -0.07151799502993      -0.76136256718265
H         2.63756760130267      -1.39639676544694      -1.41339303382614
H        -3.61848632135680      -0.45013653086316       0.88872575753971
H        -2.42386909279462      -1.72083639713369       1.35466949440898
H         3.02684498429642      -2.72693105770754       0.68557533309858
H         4.07494312398820      -1.40478643000377       1.32608533087253
H        -2.85438106145613      -2.90299556128913      -0.83360665985041
H        -4.07043093710740      -1.64054312440455      -1.26286149508106
H         5.41243015482453      -3.25001137190213       0.30782443550751
H         4.58371583836462      -2.99944095845444      -1.27168576983424
H         5.64713487333106      -1.70160951748030      -0.58747073070467
H        -5.16660894405205      -3.66715046222463      -0.33649607841326
H        -4.20184956592199      -3.52544447529518       1.18119475098268
H        -5.42201757579718      -2.25528209739593       0.75734212516835
B         7.54494666871270      -4.78900248921997       3.31458913392391
F         7.59220940091050      -3.90124316920714       4.42206253707635
F         6.66976645793087      -5.86808883700473       3.60916825700201
F         8.84724205276524      -5.29229720705137       3.05463124159131
F         7.07092137468648      -4.09368542343826       2.17176232020199
