36
C8H18F2N2O4S2 optimized with ForceField in AMS.
N         0.43318973583344       0.23142342389564       0.03396194935069
C        -0.51660140583310       1.27560907482913      -0.46540214455594
C        -0.08339378009274      -1.13340957147901      -0.29227297156612
C        -1.97157564604817       1.08161171708139      -0.00057369991601
C        -1.52352543571601      -1.37938725702389       0.19283400908531
C         1.73579652230646       0.46575136930117      -0.67303488039177
C        -2.47361546352617      -0.31561748787565      -0.34498235103319
C         0.63381202263607       0.38667963735076       1.50075735353096
C         2.89135178274557      -0.47327040518084      -0.27691432504501
H        -0.53127562980617       1.28288099257580      -1.58047348803898
H        -0.18454085770703       2.29054787038837      -0.14744335723677
H         0.55170654282460      -1.91955065444426       0.17070219651720
H        -0.05981197587874      -1.30252462454130      -1.39360314155895
H        -2.61533021685720       1.82831935809112      -0.51377695408660
H        -2.07365456566457       1.26945864262328       1.08809863934828
H        -1.56423687487217      -1.40063235549254       1.30241269282494
H        -1.86141211066208      -2.37590667625365      -0.16568080638947
H         1.60021188652822       0.36976281492543      -1.77503316669326
H         2.08638652854382       1.50881956799822      -0.49488263762864
H        -3.47658764815608      -0.46055077767581       0.10634576782172
H        -2.56975439798961      -0.42056138404501      -1.44829411788797
H        -0.31925925269475       0.36582735225394       2.06323307425776
H         1.24571414807320      -0.44078618867877       1.91828480590871
H         1.13589977939807       1.35154300034248       1.73584929852934
H         3.78591957286130      -0.21157755878908      -0.88050443072582
H         3.17353927156898      -0.34971912274005       0.78788987915718
H         2.65156322826825      -1.53373639716798      -0.48993651026034
N        -7.16084893268195      -3.04173479750322      -1.76108425182859
S        -5.69569352195295      -2.37925591305453      -1.46004812564550
S        -8.35640070190727      -2.17079094905674      -2.46103392045000
F        -5.83605917761189      -1.31585035259700      -0.17546104365303
F        -8.04734635121685      -2.03580672011322      -4.10079235678108
O        -4.71364346224057      -3.46113706130154      -1.11146610217908
O        -5.21436074165964      -1.62734723907000      -2.66929802646309
O        -8.41246661604603      -0.79434510474640      -1.85946932943118
O        -9.67161694906621      -2.86721741652624      -2.25790651128570
