54
C14H20F18NP optimized with DFTB in AMS.
N         1.65311760580298      -0.55937750297676      -0.27283017788273
C         2.16405476590458      -1.01585305278909       1.07267255155257
C         0.21127229380810      -0.13419828101454      -0.19803189339528
C         1.75243857232951      -1.70966679727843      -1.24663781473218
C         2.47782894885013       0.62217805109987      -0.72469089095702
C         1.37012234078527      -2.14476621505276       1.70949439736795
C        -0.11059563834015       0.90398994727115       0.86695783737085
C         1.44350150020320      -1.36416096037655      -2.69371767203881
C         3.94479496047423       0.33534438950361      -1.00610892241551
H         3.19366843200654      -1.34193000941469       0.92655722154213
H         2.16974518491743      -0.14035560898154       1.72552844847487
H        -0.05095532987502       0.26366992433881      -1.18064882399209
H        -0.38102107475245      -1.03527851250922      -0.02468169659279
H         2.76307044212034      -2.10281272521890      -1.16828213667619
H         1.05914504693329      -2.47830651653541      -0.90136707471388
H         1.99542272187771       1.01954861343928      -1.62093817803157
H         2.40389674984916       1.37293229104837       0.06526268062210
H         1.82233860231509      -2.34548732742982       2.68037365616563
H         0.32504539721275      -1.88403630786949       1.86761033823680
H         1.42865850607023      -3.05830898518515       1.12115904437657
H        -1.16881427040300       1.14880035627750       0.77360545620325
H         0.06058439487169       0.52340645354656       1.87187240805972
H         0.46172513937791       1.81971976148807       0.73139572064682
H         1.56934080250757      -2.28224991939605      -3.26702881157378
H         0.41956483215140      -1.01726749197607      -2.82624790708020
H         2.13127480614727      -0.62349053111842      -3.09558918334843
H         4.39037180325750       1.26358489423484      -1.36428816630819
H         4.47607565732054       0.02656887628758      -0.10958018287271
H         4.07922519669384      -0.42482773002976      -1.77165795107671
P         5.64682041263598      -3.68125170185172      -0.56305716321867
F         6.61518998844817      -2.69766293346247      -1.49779886972773
F         6.59366377962817      -5.01909094625387      -0.79249698267222
F         4.59096128100073      -2.33818512184927      -0.25184481086462
C         6.80148918801955      -3.08317714269010       0.90336169379652
C         4.74688690602096      -3.97629321034756      -2.32426575872390
C         4.31174801639179      -4.75905610123084       0.51529024042483
C         6.73054962167763      -1.58887350494048       1.32957613289413
C         3.58129816009842      -4.94211733658222      -2.69779759290727
C         3.98846417186276      -4.61683042714345       2.02930297976791
F         8.07507481647709      -3.30654388898204       0.54605199964417
F         6.57362844662021      -3.80903943010586       2.01511527978266
F         5.74608792375939      -4.31542645076759      -3.15181032777198
F         4.29620918866110      -2.75791687764442      -2.73120777072825
F         4.49434610785173      -6.06932403510219       0.30021946625105
F         3.13086977648949      -4.41674953160989      -0.08476423743501
F         7.68529224838192      -1.31175019860963       2.21550964525599
F         5.55679609917807      -1.28973389240685       1.90277681572562
F         6.88371570576774      -0.76608272305395       0.29437598402821
F         3.60200239456198      -5.16498221258425      -4.01292968567191
F         3.63767669229616      -6.11481909443414      -2.08923691736014
F         2.39181012989336      -4.37783600861061      -2.42639350128855
F         4.77877585018893      -5.34570880610248       2.79687818177071
F         2.72773303657568      -5.00911703300924       2.25966534817607
F         4.06069053399534      -3.33698483510786       2.42044396322117
