47
C13H13F18N2P optimized with DFTB in AMS.
N        -0.15611761717662      -1.35276780326422       0.35303595812182
N        -1.59448713559147      -1.67721131164178       1.92179762174859
C         0.90593492805583      -0.76551005620773      -0.45929277754920
C         2.29056341171560      -1.21146906091136       0.03173348742793
C        -0.72089957457008      -0.80200692612708       1.42703146643611
C        -0.66340223909642      -2.61069383805234       0.17472164362910
C        -1.57465359428151      -2.81191876247428       1.16261594401161
C         2.75248450285179      -0.43499949488571       1.26068855202478
C        -2.41865920039939      -1.48259707615270       3.10482246776430
H         0.80445092073069       0.32234944347168      -0.41453132552331
H         0.74359923939603      -1.09572895510654      -1.48867998060393
H         2.26274700190571      -2.28168880228127       0.25123580157789
H         2.99556179024168      -1.05192945485344      -0.78931191055113
H        -0.51188218856290       0.17590309829712       1.82363103049906
H        -0.33101903038281      -3.25527843565274      -0.61980508317416
H        -2.18287887762192      -3.66753758776779       1.39704086916981
H         2.05002329458446      -0.55838814290950       2.08235542651695
H         2.84336666523855       0.62769807820857       1.03172782818769
H         3.72305454135470      -0.80996402651327       1.58247984802054
H        -1.86926920717757      -0.88225694856190       3.82620405948706
H        -3.34438740348119      -0.97829081988364       2.82385807768018
H        -2.63729408791479      -2.45892122843672       3.53159635381436
P         0.87580000147865      -3.88199620332266       4.87231585630802
F         0.30599046414027      -5.41824182097558       4.52373897823914
F         2.30304589893127      -4.51512721154575       5.44974107662551
F        -0.55806019030473      -3.18098711774555       4.22840890196339
C         1.59473348305466      -3.86533208592984       3.03755702938297
C        -0.04497923700084      -4.08734093988159       6.58398494064162
C         1.59833946069070      -2.04579847638246       5.27013532558948
C         1.13327199332653      -4.96294885540311       2.04387781567815
C         0.59912067758294      -5.02254073868184       7.64151043585107
C         0.72168121920129      -0.76819987129553       5.14508588396570
F         2.93383018232802      -3.88457767876349       2.99672527626550
F         1.20451277928723      -2.69765724383754       2.44969532231547
F        -1.27479852644468      -4.57080350457654       6.33433962306392
F        -0.21699728026264      -2.89210110455735       7.18067036794980
F         2.65485504942691      -1.80142595968565       4.46266961805670
F         2.07227740548763      -2.06285992303917       6.52873950381015
F         1.51249833777339      -4.61041858126062       0.79670248195609
F        -0.19791418260949      -5.07924609093557       2.00374779547337
F         1.65805769304940      -6.14516396970975       2.30385326501825
F        -0.23754121503801      -5.19492403166609       8.66833304788276
F         0.87016463273085      -6.21878179053267       7.13197884935016
F         1.72396830682347      -4.49842215064372       8.11734631733767
F         0.52341540310704      -0.46972728235889       3.84203690453281
F         1.32165591590975       0.28312021363668       5.69425726588010
F        -0.48696960108799      -0.87775466839913       5.68903594294620
