34
C10H16F6NP optimized with ADF in AMS.
N         1.40052602694306       0.24972727949949      -0.58035681203079
C        -0.94327332338943      -0.30518352881670      -0.00815601510657
C        -2.37444648492137      -0.27505160100061      -0.54082723349004
C         0.07539550115824      -0.14125260190477      -1.13342207547754
C        -3.39789821024957      -0.25341873020050       0.59449579411487
C        -4.83099368790829      -0.15460913721619       0.08042335042364
C         2.11693076165019      -0.66415302683160       0.11738609780546
C         1.80377064379869       1.53294394587288      -0.66705150703280
C         3.29402452792151      -0.30525827073069       0.73720931547289
C         2.97889564540696       1.94066602140408      -0.05425540340214
C         3.73511817637100       1.01896309594304       0.65311606534643
H        -0.75456921672310      -1.24537879240670       0.54227551150406
H        -0.80659921613241       0.53299115780857       0.69186342538382
H        -2.56209222945798      -1.13804535636626      -1.20845435532403
H        -2.50018400560287       0.64346744585035      -1.14094089927133
H         0.22363199311555      -1.05923435598345      -1.72317008082903
H        -0.23095824472299       0.67141829612976      -1.80347739197458
H        -3.17476033776665       0.61406303620868       1.23950395993278
H        -3.28178801655014      -1.15934323207388       1.21743508213306
H        -4.96104956734664       0.75514860767956      -0.52741139594548
H        -5.55005637443452      -0.10685258674183       0.91281440858915
H        -5.09394931207310      -1.02236207890673      -0.54560838391631
H         1.69966242673460      -1.66840320355414       0.15949890659257
H         1.14065530784460       2.22071790116091      -1.18812846352796
H         3.85301168282126      -1.05693439605894       1.29411683907142
H         3.24413868392836       2.99625228163636      -0.11036052858141
H         4.65438063170675       1.32412391578187       1.15561559745936
P        -0.61496997540140       3.67409507603407       0.68021833855163
F        -1.45008742479115       4.90365459140529       0.00849145335803
F        -0.32435059796666       4.52859605617533       2.03910252306776
F        -1.98516953471667       3.02232090996458       1.31602057740064
F         0.26262219590225       2.38010048122485       1.31540612834131
F        -0.86409424519520       2.75484289931856      -0.72150735056749
F         0.80277689224712       4.23260155809472      -0.00702706937138
