47
C13H25F6N2P optimized with ForceField in AMS.
N         1.35081845505506       2.27601310246521       0.01688193470144
N        -0.85404152782025       2.42961925236366      -0.23308139974678
C         2.73065757808762       1.86624768757559      -0.23599328407702
C        -2.18916645243362       2.22791134195181      -0.79369025923641
C         3.00712782564021       0.47190382624718       0.34573548723575
C        -2.42753542506335       0.74673150381328      -1.12535474646308
C         2.08555912248033      -0.59881296900397      -0.25914879437958
C        -2.36397722662706      -0.13980562121522       0.12759637296266
C         0.31979292751540       2.17632278606181      -0.84417145135520
C         0.81281489533600       2.61458229405069       1.20588390232270
C        -0.55381288063603       2.71682921564795       1.04949790879103
C         2.44795890335047      -1.99870491236741       0.24563463099197
C        -2.56084090410109      -1.61712220561982      -0.22758306596033
C         1.48091563690729      -3.04458385497723      -0.30299377755504
C        -2.48243517448606      -2.49572304300796       1.01825850229417
H         3.42327298068365       2.60534068932162       0.22165473771717
H         2.92943289582153       1.85434706932532      -1.33028432819871
H        -2.29057319788989       2.83470329649202      -1.71912911899432
H        -2.96344475179567       2.57573969667282      -0.07480247981757
H         2.87152732897449       0.49900546191069       1.44780469303606
H         4.06683112586282       0.20911691970856       0.13606781726071
H        -3.43018877733855       0.64625885393290      -1.59456328487083
H        -1.66992445130455       0.40754811335875      -1.86526981990259
H         2.16641349234775      -0.57530933230314      -1.36821143011022
H         1.03326848942672      -0.38176560832809       0.02365015885551
H        -3.15322232219640       0.17855434012420       0.84330178114839
H        -1.37492588503673      -0.02252949233866       0.62051087338419
H         0.41398158672819       1.84378209751290      -1.87055074044975
H         1.36306515715253       2.71882579332887       2.12996463172594
H        -1.27802440022555       2.91243794880141       1.82982209593012
H         2.40665453656891      -2.02034749919426       1.35649506233494
H         3.48030367658823      -2.25672232950763      -0.07612554517619
H        -3.55291667955934      -1.75987631483011      -0.70844291455110
H        -1.77256834390901      -1.93763198591149      -0.94332224880062
H         1.50782013684583      -3.05193558478692      -1.41361151346132
H         0.44671257888487      -2.82627747551590       0.03478323091474
H         1.76794946283394      -4.05060243124057       0.06811570693615
H        -3.30528128114980      -2.24143649654526       1.71990395401842
H        -1.50835697556366      -2.35414282645740       1.53304883867525
H        -2.57771075383580      -3.56310132397652       0.72828873594550
P         3.42048915630860       1.88765645134959       4.74536439061086
F         2.54524212681906       0.55752972925586       4.09859039410116
F         3.17116356192081       1.35213077674263       6.35915526786582
F         4.86469688872348       0.95612611516706       4.74856031077206
F         4.19353571127729       3.28637355600644       5.37734533022152
F         3.83505621025029       2.44739269731254       3.17437432211854
F         1.92568085188101       2.73555018852622       4.75276390433386
