62
C16H36F2N2O4S2 optimized with DFTB in AMS.
N        -0.04712187839167       0.16986519879457       0.08151774095813
C         0.81629365536768      -0.81281046000797       0.82956722261365
C        -0.99786424322567       0.81106257222245       1.06582875465475
C        -0.79153657665531      -0.55354326488393      -1.00493940308567
C         0.78820976099148       1.25126480084634      -0.55703121788992
C         1.78039702428674      -0.18880465076767       1.83686614442095
C        -2.03923471052205       1.74693057327858       0.45620075705267
C        -1.78848930689685      -1.60766826528538      -0.52794305185097
C         1.90874251931672       0.78262455874815      -1.47855001697824
C         2.52649391585316      -1.29778658611336       2.58826694244443
C        -2.77859364273947       2.47475660929181       1.58751500561179
C        -2.46183814306514      -2.25177797798600      -1.74704874811949
C         2.65326204995318       2.02615905378364      -1.98768293660707
C         3.48214686511003      -0.69479010589110       3.61582110058889
C        -3.81029203954938       3.44748637827018       1.02184772652030
C        -3.47355935424331      -3.31204257665836      -1.31827286093226
C         3.78591473487062       1.64137523363733      -2.93505966209098
H         1.37093246017261      -1.38809149554528       0.08367059828455
H         0.13994997128264      -1.49318603080562       1.35233168695649
H        -0.38193872904781       1.37629203845999       1.76543887132822
H        -1.48820459672452       0.00354484951810       1.61423874810743
H        -0.04186680879149      -1.02931833717157      -1.64134615917280
H        -1.30934847630212       0.20602650608517      -1.59518290567294
H         1.20138737502327       1.84921202420900       0.25722507575901
H         0.10608594270290       1.88672518121566      -1.12337343549477
H         1.23982557904124       0.42284369023399       2.56068423887383
H         2.50816358123045       0.44964284026330       1.33190073456313
H        -2.75711835837026       1.18725364888683      -0.15044568502264
H        -1.56064249480463       2.49413563445996      -0.17928726682451
H        -2.55620578808326      -1.15658917530805       0.10478639936946
H        -1.28146517979814      -2.38288177229948       0.05239024294943
H         1.50872109033376       0.22559352437967      -2.33103647366398
H         2.61214293808253       0.13454222339798      -0.94939474406926
H         3.08742907570088      -1.91292859724483       1.87607278777695
H         1.80290627682040      -1.94536298441058       3.09503247815513
H        -2.05589758083730       3.02950862793264       2.19192824109956
H        -3.27266181231419       1.74231335359500       2.23468707125968
H        -1.69852195765199      -2.70950582506701      -2.38484385705262
H        -2.96853844000219      -1.47750071159886      -2.33214921256102
H         3.05833634119418       2.57772842644857      -1.13440149565034
H         1.94696532934336       2.68370290525184      -2.50334425201732
H         2.93313046569380      -0.08037363251037       4.32951194225601
H         4.22774251580579      -0.07089564672300       3.12222400119367
H         3.99447039482520      -1.48927502702202       4.15795050400597
H        -4.55963098936617       2.91484593049991       0.43418694592822
H        -3.32399047956681       4.18614733095484       0.38423862672769
H        -4.31097945623629       3.96848027734121       1.83740466276425
H        -4.25215838756557      -2.86816512079250      -0.69704293891053
H        -2.98211254448480      -4.10215489192620      -0.74945559507209
H        -3.94010434187228      -3.75474674138301      -2.19783468506436
H         3.39788260520988       1.10360297613295      -3.80153328350190
H         4.51197735030173       1.00506273228334      -2.42695514077471
H         4.29482079054075       2.53984449170083      -3.28285385864233
N         0.39975861776585       3.49192681820634       1.46670084991955
S         0.64347761960673       4.66361968325970       0.42133226846827
S         0.89688731730849       3.67716959758684       2.96774814919559
F         2.23018509031825       4.51378413006687       0.09283686420296
F        -0.31416150616985       4.51357533491727       3.63197711588109
O         0.01418912663755       4.24235313134488      -0.79712814357546
O         0.48159981350372       6.00403402960128       0.86452294383148
O         2.06517942864972       4.45615832766363       3.19179983246288
O         0.79159487493322       2.38215272983160       3.57728407511215
