67
C19H28F18NP optimized with DFTB in AMS.
N        -2.59432633269223      -0.79665958095890      -0.53298460201316
C        -3.50213231228428      -0.06003825264406      -1.48245850573108
C        -3.42085638283952      -1.67995305834691       0.36463993204979
C        -1.70561340203505      -1.66655965390649      -1.38859509835881
C        -1.79057007320244       0.14572425504240       0.31472979792716
C        -4.60895056990452       0.71607126365057      -0.78439409629520
C        -4.54333308938993      -0.93899838684972       1.08044297659560
C        -5.44750424584630      -0.21662399032100       0.08551613398701
C        -0.65093362555851      -2.47422872055346      -0.63980816439069
C        -0.83470842623869       1.04794752352131      -0.45207779107177
C         0.05320289279035      -3.39830459971128      -1.64283947808094
C         1.11617051157375      -4.25656627741076      -0.95241033077256
C         1.80107206606228      -5.19077822721262      -1.95514369496947
C         2.85913497041670      -6.05739421739101      -1.27509287518612
H        -3.94458797924768      -0.81018664222281      -2.13714623858902
H        -2.88137227038410       0.60120732765118      -2.08857692339149
H        -2.74569873725680      -2.13306053862322       1.09292668206725
H        -3.84294412768846      -2.46536802556352      -0.26272907825660
H        -1.23190902133806      -1.01541057001997      -2.12614290914929
H        -2.36813221386621      -2.34883113952428      -1.92050645271590
H        -2.49685806584497       0.76088125369846       0.87466953359804
H        -1.23202871871114      -0.46484139829599       1.02798969214722
H        -5.23401431499276       1.15266612214168      -1.56750590509936
H        -4.20013546205660       1.53599471267058      -0.18590208216279
H        -4.13986206151361      -0.23277401835928       1.81266985357567
H        -5.12089941991974      -1.69032837451251       1.62515027247504
H        -6.20579297387072       0.35683085374125       0.62335129317528
H        -5.95447760116025      -0.95016216968028      -0.54624900608574
H         0.08686172622524      -1.81846150434018      -0.16847446163066
H        -1.11398429600196      -3.08340302607014       0.14061436883261
H        -0.08196200557562       0.47823174287679      -0.99299160950663
H        -1.36110478339228       1.69450703444173      -1.15150534488150
H        -0.32517535673780       1.67884556161415       0.27623973937632
H         0.51931495315355      -2.79359000876691      -2.42757066588934
H        -0.68965030806567      -4.04629448914479      -2.11734638452279
H         0.64621277851146      -4.85022630334720      -0.16078243530829
H         1.86408417615048      -3.60705303145127      -0.48373432482932
H         1.04870768769870      -5.83367940330627      -2.42307456468346
H         2.27000452780007      -4.59462294202445      -2.74506150208039
H         2.40604349295152      -6.67547872344056      -0.49876411270218
H         3.33197951941221      -6.71147331930137      -2.00772881993463
H         3.62890719844061      -5.43416194524648      -0.81739327020993
P        -5.09894046122839      -3.63740428249508      -3.57979093653269
F        -4.01636693831574      -4.90280979863707      -3.37786867641855
F        -4.37986042156723      -2.87173940750602      -2.20081789766960
F        -5.79930299083590      -4.33907614943436      -4.91351037018621
C        -3.73535290276348      -2.80255971742866      -4.72685857318069
C        -6.27677871202647      -4.66119326759079      -2.39220483019873
C        -6.28416403836769      -2.02219520435392      -3.66584645096283
C        -2.59973931029623      -3.69694455594221      -5.29175950387990
C        -5.95013553452357      -4.65091619524386      -0.87322077000938
C        -7.43248476794556      -1.88585503101249      -4.70016242816666
F        -3.07915004113845      -1.80333115362280      -4.07436742696960
F        -4.34878253645418      -2.23872475600179      -5.77793482853965
F        -6.23647010085545      -5.94629180316461      -2.77524420173774
F        -7.55401044250227      -4.25892856934015      -2.51318808001667
F        -5.49990309375907      -0.92907732420958      -3.83422117342147
F        -6.84530479352330      -1.87035851372299      -2.44306354965499
F        -1.90808797829814      -3.02379689075531      -6.21560214647811
F        -3.04868725477454      -4.81027189440297      -5.84748958087482
F        -1.74049240955135      -4.01753321938734      -4.31613041745996
F        -6.72576709635137      -5.50932136536603      -0.21606554795142
F        -4.68133949575776      -4.98638995390555      -0.63598083761038
F        -6.14765191745459      -3.43990078068136      -0.33347267363900
F        -6.95497499681063      -1.81750365433178      -5.93756006033171
F        -8.12186420409510      -0.76430519543983      -4.46490636349538
F        -8.27805127057446      -2.90640577522591      -4.63279879232191
