67
C19H28F18NP optimized with ADF in AMS.
N         0.86146365154722       0.10006506864113      -1.11378602205019
C         0.98882089246775      -0.29681079302695      -2.57805330599455
C        -0.39816172587974       0.92395285829742      -0.93875533509330
C         2.08012999807160       0.95449654226601      -0.78560892349159
C         0.79154554986533      -1.11808776065022      -0.20721325210250
C        -0.23129598338413      -1.02568552012952      -3.10271661966089
C        -1.65002638005723       0.22935667322547      -1.45618420343462
C        -1.49633262771714      -0.18973190860915      -2.91789409429517
C         2.25046795546455       1.34456326779714       0.67118252938423
C         2.00132157320461      -2.02946017815716      -0.24002439449319
C         3.47161185652626       2.26242730793241       0.81121265063555
C         1.80139051379257      -3.18255559834597       0.74826393740667
C         3.72766015489784       2.66156640822246       2.26084066786184
C         2.98989967218206      -4.14084153075746       0.75103220684416
H         1.90765137061637      -0.88296134256702      -2.67473967832542
H         1.13724109180117       0.65005597570486      -3.12265958023173
H        -0.22316344356573       1.85776739669972      -1.49713254662970
H        -0.48137187699377       1.16534166938535       0.12981436245307
H         1.97962474440133       1.85118307646773      -1.41805438743041
H         2.95167712484166       0.39157486381071      -1.14336452107742
H        -0.10783226862309      -1.67343974828081      -0.50027226899819
H         0.61779612043617      -0.72166085756833       0.80480311861201
H        -0.33370000817273      -2.01120320796071      -2.61683648461216
H        -0.04109248919631      -1.23201232880116      -4.16869958798652
H        -2.48499360018844       0.94038240231271      -1.33742133375850
H        -1.89734129015916      -0.64183284272229      -0.82681183896226
H        -1.42617356105553       0.71567989737955      -3.54884410083094
H        -2.38667245147209      -0.74549451499426      -3.25135428818992
H         2.41462702111881       0.44922558056319       1.29383367206662
H         1.35935839488730       1.86609735627479       1.06244478048459
H         2.92196290888768      -1.48662335702490       0.01762558911124
H         2.16349438288452      -2.44003409822534      -1.24702815547559
H         3.32109985913924       3.16622203044496       0.19366022560680
H         4.35564114309675       1.74353954897362       0.40535448789641
H         0.87748637937104      -3.73266565043757       0.48937929505993
H         1.64691020445289      -2.77317256741926       1.76412034614108
H         3.90489995654450       1.77294479006983       2.88712458790736
H         2.87132769854797       3.21148700977707       2.68329021563118
H         4.61526459743869       3.30626660505832       2.33864135632598
H         3.91798862887361      -3.61477364956897       1.01890035527855
H         3.14438759801563      -4.57765926016890      -0.24642932343970
H         2.83380795003235      -4.95872643419138       1.46943845052412
P         5.30689866883237      -1.87686653247531      -2.80854803214733
F         4.00736282183304      -0.80201800039332      -2.54667927118823
F         4.67457060503663      -3.00296265072613      -1.74904472799451
F         5.92323700141401      -0.76749457864543      -3.87633856283974
C         4.08389341019199      -2.63683859341516      -4.16859308313874
C         6.12888909983366      -0.94138226435884      -1.18936533180223
C         6.95794678030473      -2.96979810789397      -3.12062822417312
C         3.74793327025302      -1.81779310424231      -5.45245337719296
C         7.01554061043232      -1.60860865540572      -0.07784191844643
C         7.32965733756650      -3.78062504583633      -4.40846032354794
F         2.83265147069425      -2.85736531309359      -3.58384645085953
F         4.49571196933171      -3.87036838112650      -4.60391005886228
F         5.05907039359571      -0.48543274417552      -0.40211725860557
F         6.81018262917299       0.18038030782772      -1.58774284087018
F         7.11357263804473      -3.87262417221648      -2.09004083425606
F         7.97965354329841      -2.04423339963993      -3.02569937871364
F         2.83321171430710      -2.51136795895206      -6.19639288986317
F         4.82534626321209      -1.60207281623294      -6.22812778894967
F         3.18537734063816      -0.61651286156633      -5.14909972591062
F         7.17345449490210      -0.70011275135286       0.93694072463715
F         6.40404701650632      -2.69711411554354       0.45001968247500
F         8.25051207549908      -1.95433628607085      -0.48084839507772
F         6.75039641193416      -5.00325120347322      -4.43170876660003
F         8.67688748241054      -3.98650721176351      -4.42255765372186
F         7.00734962601202      -3.10868259102497      -5.53677202681755
