46
C12H26F6NP optimized with ForceField in AMS.
N         0.97406309477140      -0.31460089504017      -0.01530421568295
C         2.05690369512843       0.06641412016327      -0.97454093399088
C         1.62560298590947      -1.25083403388560       0.95074917889249
C         0.48489027015153       0.89830673544784       0.71961556776397
C        -0.12471726638387      -1.01945318531694      -0.75301116381729
C         3.27018531135177      -0.80106364597111      -0.69644651411124
C         3.12538571475065      -1.16868031100980       0.75274911242086
C        -0.25539314859227       1.92973906687645      -0.16625453297816
C        -1.31827505732338      -1.44626879924436       0.13515629960468
C        -0.56233395110448       3.20861367205339       0.62242254147035
C        -2.30793462641965      -2.30988631808060      -0.65579653456728
C        -1.29892874947116       4.22653878581085      -0.24352297728748
C        -3.48517123194495      -2.73698225935605       0.21601524039814
H         2.38231220853880       1.12460986550368      -0.84658476488298
H         1.75666113969768      -0.04029886292216      -2.04249884273000
H         1.33620115548153      -2.31198393559490       0.76876243560523
H         1.36967648739767      -1.03453066258430       2.01290261357352
H        -0.19376196984579       0.60482537799186       1.55121907618555
H         1.34722050393263       1.40713998696827       1.21060318982958
H        -0.51178558162981      -0.38319172765760      -1.57975274817197
H         0.28692267094980      -1.92785737494845      -1.25200151799698
H         3.23063518934036      -1.71839635783041      -1.32527488351743
H         4.22205221428062      -0.25785204565711      -0.88600980165730
H         3.54818271189414      -0.36317741218658       1.39350068915015
H         3.62837569567714      -2.13390234121452       0.98168145170332
H         0.35579302035678       2.19248161034463      -1.05504588002523
H        -1.21783020976876       1.50559411643239      -0.52042962310273
H        -0.96257580265576      -2.02170311205989       1.01565146353610
H        -1.85972677947021      -0.54968921958360       0.50200681292034
H         0.38483688882620       3.66480816998346       0.98430409131567
H        -1.19438174559509       2.96164417805289       1.50337537830840
H        -2.69379399657944      -1.73421287378733      -1.52538045475685
H        -1.79445312146806      -3.22038470727581      -1.03469103433151
H        -2.25685440939061       3.80042466103368      -0.61126597835712
H        -0.67069993482602       4.52035830341189      -1.11112304860856
H        -1.52149980568166       5.13345925343222       0.35762286716067
H        -4.02403340900358      -1.84550934312613       0.60235520627581
H        -3.12860857186405      -3.34968373397149       1.07115125687240
H        -4.19182720616552      -3.34556135472192      -0.38698547357279
P         3.19489853927847      -3.35536973937164       4.61923576410666
F         3.59307001230551      -2.67752780204656       6.14591769908968
F         1.56426093681197      -3.65300011227976       5.06787310681770
F         2.81272042847774      -1.74522195393395       4.16325258352780
F         2.74638147206380      -4.02953401206305       3.10484647310053
F         4.76561326609935      -3.16014133728833       3.95344450286940
F         3.68607991241072      -4.85333779029665       5.30048315114774
