31
C7H13F2N3O4S2 optimized with ForceField in AMS.
N         0.07277665042479      -0.64704893727610      -0.45096369514435
N        -1.97882055943703       0.13269519036110      -0.09862398755989
C         1.44917940267342      -0.75043353493394      -0.93291602409472
C         2.44720911425509      -0.39117953088587       0.17424787899692
C        -0.82321103335886       0.30858556972270      -0.76751779194198
C        -0.53646346722463      -1.45069583129470       0.44426752550889
C        -1.81100418630162      -0.96747241358009       0.66073997327600
C         2.24162506620300       1.03682389736989       0.67872566459528
C        -3.16420352320513       0.97846935185719      -0.15225893349212
H         1.60251820875467      -0.07052562677703      -1.79976032426796
H         1.63903335416588      -1.78807409672162      -1.28271518455382
H         2.34449756788187      -1.10237099870114       1.02210346511792
H         3.47927646742655      -0.48531196513575      -0.22749234914009
H        -0.62855651739226       1.12743426317918      -1.44921745613011
H        -0.08420876720315      -2.31325991032583       0.91612654776709
H        -2.55117187194836      -1.37689341189046       1.33575629002460
H         1.23971375986883       1.14676314918370       1.14439711367565
H         2.34114391850700       1.76014584065900      -0.15834760042454
H         3.00112340764246       1.27537345050941       1.44785659894558
H        -2.97941065316915       1.86822628084900      -0.79163938467206
H        -4.01416693679166       0.40172071352209      -0.57314371508290
H        -3.42480854149963       1.32199946308316       0.87112053282731
N         6.81018428454772      -0.04550564899343       3.90072811637281
S         5.59031057278367       0.05743323259323       2.81617067666863
S         8.18015664722725       0.82908665332845       3.71399276020927
F         5.99556311522617      -0.81535457755667       1.44638803300539
F         7.86044770034688       2.43705029378524       4.05410658652775
O         4.33478354593645      -0.51108148355143       3.41334956502883
O         5.36931911262014       1.49385623616838       2.43333229422937
O         8.66862485325437       0.71940913650198       2.29668986931188
O         9.23395437188525       0.32036584295038       4.65519128051535
