35
C11H18BF4N optimized with DFTB in AMS.
N         1.62720751159354      -0.03365697879079       0.27327696024247
C        -1.99071916157648       0.05018443446553      -0.72034709831996
C        -0.72953868657779       0.59081586776754      -0.04407957016302
C        -3.22540390754837       0.41485458950837       0.11070077372347
C         0.54512590558768       0.05905120876741      -0.71708002761841
C        -4.50507429384141      -0.14178141004694      -0.51905251465307
C        -5.73335049561572       0.21721164647878       0.31615920973701
C         2.04001161458592      -1.24329303979258       0.68665400523138
C         2.05976159592304       1.09202335332766       0.87542569646768
C         3.00217934621820      -1.34610441867035       1.68470712409246
C         2.99579397656481       1.03604980419067       1.87790999043225
C         3.47542030981352      -0.20501116344700       2.29844350255055
H        -1.92001102313598      -1.03996993378840      -0.79759215582768
H        -2.07999036327477       0.45517948362251      -1.73476856824405
H        -0.72767099197552       1.68434823325607      -0.06680206375645
H        -0.72729782609596       0.27733612294876       1.00054881433013
H        -3.10365081062807       0.00673060426222       1.11890838356527
H        -3.30047193408057       1.50444201361978       0.19461960773792
H         0.87641910631600       0.71308694557567      -1.52875782236308
H         0.38110964116121      -0.94449433971189      -1.11560832612513
H        -4.62230902528407       0.26025861534345      -1.53185094024765
H        -4.42667706736584      -1.23120129486865      -0.59929586096584
H        -5.84176941869615       1.30016949081145       0.39092549143386
H        -6.63323300387239      -0.19124667732470      -0.14444105992409
H        -5.64140461335699      -0.19124184690013       1.32302949237454
H         1.69399256058577      -2.10304093577586       0.13023569612818
H         1.64046697806622       2.02585121483412       0.52260978346705
H         3.33007935883604      -2.33054220222929       1.99182639086948
H         3.33102665733723       1.95252631208792       2.34516719987970
H         4.20571589785302      -0.26782607738367       3.09580877752989
B        -0.23494679808944      -1.06237018489609       2.89665539305632
F         0.04737360883066      -1.75945399124636       4.03882863423850
F         0.24282492491356      -1.82825414912198       1.75046747597325
F         0.46517365164659       0.16084376553037       2.85651771937669
F        -1.58690157961749      -0.83645171020361       2.69974089347035
