38
C12H18F3NO3S optimized with ForceField in AMS.
N         2.33890276866603      -0.00524425371229      -0.37598684087853
C        -1.47733093653133       0.01966919447235      -0.62248090627470
C        -0.09163362389297      -0.02563267227129       0.03299317415210
C        -2.58873025091259      -0.03527892586366       0.43291966894575
C         1.01934849949458       0.02931364315767      -1.02013175681903
C        -3.97400060780957      -0.00649308804156      -0.22351164420492
C        -5.08283704557947      -0.06911659000036       0.82323526771077
C         2.98504461448126      -1.20008409868640      -0.21009601364047
C         2.91935560694454       1.16047100706738       0.04465444352319
C         4.24879017224682      -1.24685063589568       0.38461181545459
C         4.18378893305969       1.14939998112642       0.63942076471414
C         4.84977977830649      -0.06318921174130       0.80942495947493
H        -1.58404674694111      -0.84451844773950      -1.31492490828999
H        -1.57578767886539       0.95852776881125      -1.21131164960073
H         0.01819506640949       0.83728173531341       0.72581018943013
H         0.01022854654098      -0.96552589407379       0.61860171013393
H        -2.48423859566715      -0.96848787891864       1.02944257343431
H        -2.48887089780402       0.83545125453900       1.11815182130755
H         0.91625873956839       0.95577391602246      -1.62680248722802
H         0.91080228417868      -0.82651965373547      -1.72367013620932
H        -4.08966319274688       0.92860219355852      -0.81388530521475
H        -4.08107743301330      -0.87333963430568      -0.91160061523834
H        -5.01695657587232       0.80280741313617       1.50842029812332
H        -6.07179256804313      -0.04984855305959       0.31853405540962
H        -5.00424321632532      -1.00690303587885       1.41360145750063
H         2.52549718498624      -2.12524157990807      -0.53708477120764
H         2.40924023751829       2.10746151049130      -0.08619253707307
H         4.75846516307061      -2.19329842664915       0.51131592354074
H         4.64393886001658       2.07425681227116       0.96237073454518
H         5.82997045272659      -0.08561340359718       1.26845836446289
S         3.21997687265605       2.59498434840896      -3.67686970456614
O         3.39073666354948       1.14361745750727      -3.20566817777729
O         3.92501328629770       3.40414823954377      -2.57838162299064
O         1.73298158881713       2.87496725286584      -3.41508529419991
C         3.78162530591136       2.92877916733818      -5.37101712098297
F         3.09018295137307       2.12265714220348      -6.25432003210143
F         5.13361307077980       2.66416085172527      -5.47114960024295
F         3.54935341830471       4.25426119311858      -5.68223541672292
