55
C15H25F6N3O4S2 optimized with ADF in AMS.
N         0.67486114509414       0.04020582862933      -0.74854001234296
N        -1.29551177298259      -0.26433634584163       0.12253299466812
C         1.75478512024797       0.07874130175227      -1.75642356533993
C        -2.69027425037489      -0.72687410106111       0.27701688260058
C         3.12468149098127      -0.31294470120773      -1.21284280859285
C        -2.83486569388671      -1.96742541305726       1.14820221986330
C         3.30404421808369      -1.80999779219603      -0.97792354233442
C        -2.45594668922366      -1.79266895697503       2.61531882912082
C        -0.53361489178283      -0.49860506378913      -0.95448499637403
C         0.68276842207093       0.64580744726287       0.49224693600263
C        -0.55319659819424       0.45168807430695       1.04042776827916
C         4.68458021983194      -2.15959645332088      -0.42771171416920
C        -2.74707599577982      -3.05672523760260       3.42579964017976
C         4.91364564791657      -3.66822939708374      -0.35483594260925
C        -2.31352155001722      -2.93362001861112       4.88343689422899
H         1.76571659697296       1.10331213884334      -2.16255602996084
H         1.44744064371139      -0.61781852034684      -2.55015171991485
H        -3.05230857350505      -0.94061525006912      -0.73813208122310
H        -3.25708742189835       0.12728306776767       0.68103261357113
H         3.34640186452587       0.25724392340637      -0.29216328643315
H         3.86116663591243       0.03496524735893      -1.96026738448876
H        -3.89814093721585      -2.26025484430892       1.07381581581696
H        -2.25712172404039      -2.79142121893531       0.70058344710324
H         3.13737321520091      -2.34618428495735      -1.92831931533279
H         2.52604848406090      -2.18204888121605      -0.29731008839128
H        -3.00595190699752      -0.93722599542960       3.05607047714466
H        -1.37872622706616      -1.56734195815501       2.70106994304423
H        -0.84600838660873      -1.07290018929884      -1.81863592498427
H         1.55646001473046       1.15157547333230       0.88081359449237
H        -0.96029168034241       0.74963312277015       1.99792742232248
H         4.80146460721470      -1.71503371255700       0.57848669951457
H         5.46104966476381      -1.69603070076699      -1.06524030587121
H        -3.82869271771520      -3.27863743295604       3.37403295697587
H        -2.23157980409942      -3.90985663947406       2.95254327882032
H         4.84145572023379      -4.12119131242334      -1.35689952631557
H         4.15199416991225      -4.15575454533665       0.26989511966167
H         5.90756842276052      -3.90088508116141       0.05552797724849
H        -2.85573549481978      -2.12049516252604       5.39366056760197
H        -1.23541565640357      -2.71867677541550       4.95452085502766
H        -2.50471853982136      -3.86627243198048       5.43526125053176
N        -0.64698555627955      -4.38568340157046      -0.12757526830585
S         0.63887292646811      -4.96966280143611       0.67473708343742
S        -0.56417213513034      -3.75833439646842      -1.59422001597155
C         1.04786172367067      -3.54855265598644       1.87784774962981
C        -0.63473256185589      -5.22364895417592      -2.78332743445668
O         0.17542739471291      -6.02199934855860       1.56294403463664
O         1.85340666568681      -5.12110187100821      -0.11411105423166
O         0.66540017959919      -3.05344415924709      -1.97053286630523
O        -1.83480125233658      -3.06050481931354      -1.84024854275069
F         0.33099289752583      -3.65069673187930       3.01775505335927
F         0.78785013646902      -2.32472307096147       1.33213535927994
F         2.36156963618232      -3.58267630436051       2.20084427360529
F        -0.70300496470675      -4.74412548705437      -4.05176549457630
F        -1.72714350766558      -5.98149472422332      -2.54750443512430
F         0.46654452980906      -5.99126633302562      -2.66960897996837
