46
C14H30ClN optimized with ForceField in AMS.
N        -0.09303370884169       1.47427436950055      -0.00788902567468
C         0.45161722583895       2.42408406340316       1.01168506184618
C        -0.74674639000329       2.34604978381622      -1.03162609526008
C         1.02300263574364       0.70841873876832      -0.65359238860058
C        -1.10676411211358       0.58178239338885       0.64333935253450
C        -0.10295289632385       3.80377125993940       0.71480494717331
C        -0.31937382870296       3.77650801987857      -0.77073184600705
C         1.78409389701772      -0.24898754962927       0.29373193751121
C        -1.77276792382216      -0.44591284250509      -0.30204615412918
C         3.03881755622612      -0.80708960135434      -0.39243579586235
C        -2.86897209497100      -1.22469085238604       0.43854012529291
C         3.75466191815783      -1.82513331694698       0.50296234775377
C        -3.55213379728697      -2.24113872852989      -0.48336568273036
C         5.00396194196315      -2.37753851927898      -0.17750533995489
C        -4.62157689908144      -3.03048945087446       0.26673106907693
H         1.56161430715023       2.50581401811553       0.96099529762000
H         0.20487658939812       2.13721987078610       2.05987143521881
H        -1.85793428585208       2.32486562370233      -0.95357394653469
H        -0.49686104990977       2.06162724160754      -2.07956624308754
H         1.75562891098592       1.42474240827658      -1.09386868667247
H         0.64281312446501       0.11422683613003      -1.51369496382601
H        -1.91085890659495       1.20697641871946       1.09788878170432
H        -0.64845314701035       0.02915617348125       1.49310519621972
H         0.60024593209879       4.61068439405722       1.01479204982583
H        -1.07736675832470       3.93993625809741       1.23550499230713
H        -1.09277470851413       4.50871074145145      -1.08900788608080
H         0.63925018949471       3.98700956769367      -1.29581448810848
H         1.12788054551101      -1.09976039754586       0.57291799366665
H         2.09021065726922       0.27619362119282       1.22272380101346
H        -1.01907664241870      -1.17258974637135      -0.66949017703843
H        -2.22544298261108       0.06492214651800      -1.17762891663753
H         3.73376765586901       0.03044259668500      -0.62348709589071
H         2.74923664121510      -1.29784466355899      -1.34737766668675
H        -3.63200606124286      -0.51319970388886       0.82477035105133
H        -2.41615828578991      -1.75946229436975       1.30255487165136
H         3.06887445531937      -2.66957823129587       0.73230633115299
H         4.04986159255587      -1.34087468675123       1.45918459565393
H        -2.79700142666083      -2.95136844542937      -0.88508338078586
H        -4.02848184503543      -1.71129880874745      -1.33691289022272
H         5.50621462579690      -3.10113269991936       0.49862097621970
H         4.73174464442222      -2.90171657087417      -1.11801272348068
H         5.71444511443861      -1.55541807434107      -0.40815624293947
H        -5.10168255416341      -3.75608929236268      -0.42303340277185
H        -4.16618706557838      -3.59130094620575       1.11067304469591
H        -5.40215694176317      -2.34531752715453       0.66087597527701
Cl        2.33914636007919      -3.95964167888810      -2.89131003758380
