47
C15H29ClN2 optimized with ForceField in AMS.
N         3.08415680815057       0.88054935170206       0.02428186832210
N         2.91473937153601      -1.33222615221038       0.17982301839840
C         1.49436883784851       2.75583238672116      -0.21084605475278
C         2.85759088852020       2.29293519082819       0.32536536539494
C         0.98648729140521      -2.64828513507381       0.99580431338761
C         2.48880460627456      -2.64324661831964       0.66976062181567
C         0.32834714707976       2.05169019447690       0.49956592742614
C         0.12852358705873      -2.30277273563017      -0.23177120481081
C        -1.02572471195982       2.52890799349884      -0.03577150229720
C        -1.36340997447171      -2.27714646640146       0.11979141515148
C         2.82886803320499      -0.16047245213623       0.84025545834566
C         3.35208365126536       0.34961588302399      -1.18580130562890
C         3.25484158091535      -1.02173969032984      -1.08794736587093
C        -2.17642122711062       1.84362799840819       0.71132092696574
C        -2.19436879325694      -1.76035608181782      -1.06164887825819
C        -3.52538944933868       2.17827573518890       0.08222140728263
C        -3.67556321475028      -1.67914520773016      -0.70320782428398
H         1.40879974785897       3.85200628276579      -0.04975004262366
H         1.44127171119636       2.56244012431601      -1.30447572152960
H         0.78682815277167      -1.91727134433876       1.80962040849489
H         0.70622219597340      -3.65823871862844       1.36661643170510
H         3.66465467799552       2.89865943049500      -0.14032675547632
H         2.90375538817328       2.46114622679656       1.42386036429009
H         3.06774791505132      -2.89751117266705       1.58376806002113
H         2.70148001465396      -3.42370020358419      -0.09302087975040
H         0.38869235288181       2.25187519903184       1.59171321817444
H         0.39995908660146       0.95607722911800       0.33545279132281
H         0.30739328752399      -3.05336463088371      -1.03242218577311
H         0.42035303073451      -1.30337863454256      -0.61873318654952
H        -1.11170655868477       3.63036326129421       0.09096614972910
H        -1.09109019009666       2.28907965062436      -1.12006357408845
H        -1.52491130335114      -1.61510260534513       0.99824718178116
H        -1.69615673413532      -3.30363196697581       0.38842868302578
H         2.49473616074108      -0.06099988197904       1.86592937635261
H         3.53422596901579       0.91750729850270      -2.08890674553787
H         3.34357618193189      -1.73012387566645      -1.90131559689554
H        -2.03761949730935       0.74312895311385       0.68868351241626
H        -2.17823479790128       2.17118720050703       1.77360698009146
H        -2.06807778146544      -2.43977323882318      -1.93239876558770
H        -1.84281987596493      -0.74657203412810      -1.35471091115768
H        -3.70957934222054       3.27266271510964       0.12400583980194
H        -3.55237546206646       1.83882135333551      -0.97521883140612
H        -4.33400859418866       1.65870768252718       0.63835571131130
H        -4.24522277702330      -1.27226175573642      -1.56517676232948
H        -3.82799255959020      -1.00769759658327       0.16816841163331
H        -4.06849669145682      -2.68886088786432      -0.45970635065861
Cl        1.09427788957866       6.80599472971001      -0.94690815467491
