48
C12H22F6N2O4S2 optimized with ADF in AMS.
N         1.03909123496059       0.26206187962396      -0.18529094915385
C        -0.36924459554214       0.09129124406999      -0.70635544241335
C         0.84166565453764       0.17313563961152       1.31677024826329
C         1.61820388336373       1.59960059926240      -0.59326166292033
C        -0.98668008985715      -0.99675035444865       0.17143090996729
C        -0.19955340576753      -0.93031001375387       1.50811958410723
C         1.92499668362108      -0.90038660562234      -0.63657319067521
C         2.92503627265258       1.93787976767740       0.10505074425497
C         2.24967414590790      -0.92289956257918      -2.11241560351147
C         3.73505537306408       2.96988690120947      -0.68266880968376
C         5.04241866547018       3.30253427672516       0.03148485639508
H        -0.34120329219461      -0.13240936533061      -1.77974957530718
H        -0.87105136854686       1.05893765423699      -0.55644748665340
H         1.81100183325945      -0.02262497498601       1.79392532875665
H         0.45639603139055       1.15564447208423       1.62930839803166
H         1.74483068321531       1.55873078584548      -1.68485775947562
H         0.83551765082205       2.34372798736830      -0.37446569915021
H        -2.06106269153058      -0.80730907650478       0.30674094027573
H        -0.88852410294213      -1.98696679494010      -0.29669627835421
H         0.28865257030705      -1.88961094837153       1.72929993912895
H        -0.84965705082663      -0.69092294588172       2.36134100970030
H         2.83497165837653      -0.82961081466714      -0.03261350891780
H         1.39877116728794      -1.81295310093965      -0.32867787231725
H         2.72368573836351       2.31386460601137       1.12274281914986
H         3.55111888754106       1.04239280540234       0.21523252546512
H         2.83924962691568      -1.83424989174313      -2.29817321789310
H         2.89587048403754      -0.08518921133213      -2.40600925784525
H         1.35937419288523      -0.95566829389355      -2.75819809886024
H         3.96285050629418       2.54892040409423      -1.67837593969690
H         3.14118174022175       3.88838432104119      -0.84537116646385
H         5.63936791227717       2.38856418334947       0.17290101331085
H         4.84995485440435       3.74338207674335       1.02233782026229
H         5.64133766413798       4.01951342580876      -0.54989978246717
N         4.95919517846871      -2.36282137914236       0.51850903957319
S         4.72160164633554      -1.79873710163975       2.00303085223553
S         5.55863563859978      -1.52117425079759      -0.69926247640048
C         3.63081381085321      -3.22271509904779       2.57530293763173
C         7.43057621848339      -1.51923455283439      -0.44558670883631
O         5.88734524652873      -1.83448176606642       2.87275599449554
O         3.83147240552306      -0.62725466269084       2.07900213600829
O         5.21536277534348      -0.09464439613462      -0.70528666427356
O         5.35685120149944      -2.29970747799527      -1.91459928493144
F         2.49135747057485      -3.30847276445828       1.82460977646744
F         3.26148513190056      -2.97814331501524       3.85720340261212
F         4.26367614569279      -4.40710546176349       2.52251482035428
F         8.02496509533892      -1.09098142032027      -1.58731629247078
F         7.88106696240987      -2.75750676391436      -0.15797965478142
F         7.77608529464020      -0.68118413265054       0.55805091440672
