60
C18H39NO2 optimized with ADF in AMS.
N         0.46451635489426       0.24977949085898       0.03797075718817
C         1.52096643516149      -0.58392087084364       0.75813498759096
C        -0.58855710040488       0.69544720241175       1.02696551523890
C        -0.12774388776561      -0.63388517873815      -1.06660402074500
C         1.08966532780883       1.47708085301820      -0.60190802894889
C         2.28032434373477       0.12155608639780       1.86538597013928
C        -1.75348017715407       1.48570496321060       0.44883762243925
C        -1.08465047519342      -1.70776498369246      -0.58384331276038
C         2.28990151242306       1.20881563050926      -1.49231456307429
C         3.39974662604143      -0.80061056075316       2.36503003051358
C        -2.81931282132771       1.72223626853367       1.52316836100654
C        -1.43021828464112      -2.63605449332745      -1.75219984619109
C         2.74330106890005       2.49787457288420      -2.18048497464760
C         4.18310912235221      -0.19232422625779       3.52456943468694
C        -4.00235972438042       2.53213069971697       0.99821938769040
C        -2.42998990212679      -3.71218309259879      -1.33937477566747
C         3.94176024593663       2.25422889938530      -3.09601365591020
H         2.17915080798441      -0.96410339882601      -0.04830048756641
H         0.99574069216617      -1.47094948547046       1.13696216310189
H        -0.06629614628517       1.29565792813327       1.78561985416344
H        -0.94911569314893      -0.22182950886664       1.51440214431702
H         0.75651383990587      -1.11287961299505      -1.53666664572412
H        -0.61714133630163       0.04932326762824      -1.77766774474936
H         1.35571406885840       2.15694455612128       0.22276434089662
H         0.28660848941358       1.95344403176204      -1.18301545771469
H         1.62513178462053       0.37853174809243       2.71697514424219
H         2.73519454986672       1.06157314545047       1.50565662541095
H        -2.20866661435306       0.94311759657709      -0.39597419580907
H        -1.41182532000163       2.46202556659604       0.06661374396944
H        -2.01327740616480      -1.27957760811299      -0.16402634885274
H        -0.58872704021185      -2.32819215142098       0.17933063103357
H         2.05872009262446       0.43873632067882      -2.24306911045898
H         3.12435815689502       0.79726406821249      -0.90379516962201
H         4.07631452250464      -1.02465306791094       1.52225857151864
H         2.96278725323399      -1.76746502035826       2.67064341107446
H        -2.36323960778004       2.24564844260216       2.38322322061565
H        -3.17500982368991       0.74711625386031       1.90194803758676
H        -0.49086248719168      -3.11032886082503      -2.08047167875436
H        -1.83344777225128      -2.04831274445080      -2.59795358313164
H         3.00421430276878       3.25713869876549      -1.41938600847241
H         1.90754337068852       2.91787342442289      -2.77004050719354
H         3.52790189065368      -0.00255014051563       4.39052321297849
H         4.64418876961806       0.76600818544713       3.23484472818415
H         4.98999886822106      -0.86338657493775       3.85615777233071
H        -4.49303247306167       2.01376370565918       0.15891954839124
H        -3.67615545383256       3.52127575007905       0.63880736614959
H        -4.75785400923732       2.69200567953951       1.78196562724938
H        -3.38252376769050      -3.26968909493619      -1.00348326401361
H        -2.02203860175187      -4.31680313852513      -0.51391502404366
H        -2.65031130787560      -4.39419339479837      -2.17468466659917
H         3.68932843681291       1.52366032215627      -3.88027754652870
H         4.79130060735966       1.84423851694148      -2.52794217919983
H         4.27246997518633       3.18345380142431      -3.58424377230392
C         3.24675706213624      -4.16166874735664      -2.08374173639631
C         2.37190819134195      -3.09535212207660      -1.40627527249983
O         2.61285596279392      -1.88465102404021      -1.75224323770332
O         1.50212876907377      -3.47825664154771      -0.57614487496125
H         3.28718575623803      -3.98322304402976      -3.16917304680398
H         4.27975085163356      -4.07861461264843      -1.71026013281127
H         2.87449309387052      -5.17483037381568      -1.88011183224913
