23
C7H12N2O2 optimized with ForceField in AMS.
N         1.10457152047571       0.01138320726745       0.02004348331019
N        -1.11814121636536       0.01159869112255      -0.01648124139733
C        -0.00684943449899      -0.75080044358155       0.00327389052297
C         0.68364031808376       1.29124325439046       0.00813591065810
C        -0.69658039020479       1.29142893602022      -0.01473652681102
C         2.48793363730510      -0.44450255881411       0.07089188859282
C        -2.50273617808869      -0.44440209757310      -0.01710730420572
H        -0.00725679663189      -1.83398341440811       0.01511034659869
H         1.33033096354359       2.15898201580817       0.01949993731458
H        -1.34292067409940       2.15949727401762      -0.02240387672415
H         2.53731830118413      -1.55303182689493       0.02140601071337
H         3.05202528113497      -0.02093953645533      -0.78386711106996
H         2.95948374656391      -0.10333577129068       1.01599213597849
H        -3.02293210397430      -0.05969518326567       0.88539361937227
H        -3.02005714374990      -0.06807823246271      -0.92454799218059
H        -2.54921052659432      -1.55423075463178      -0.01123967966069
C         2.86282492871542      -1.54417403805446      -4.72246852256790
C         3.18452477468281      -0.48966777845372      -3.71263511105863
O         2.38704885845014       0.40656255351703      -3.48790133806456
O         4.25167072696382      -0.51433074193276      -3.12097458251633
H         1.77381696175485      -1.76193804142252      -4.71521371533575
H         3.15863265617340      -1.18959412437113      -5.73176773500121
H         3.41350928497604      -2.48025411143094      -4.48954943356760
