39
C11H19F3N2O3S optimized with DFTB in AMS.
N         0.54955137876964      -1.55845556833661       0.35758145388249
N        -1.52060672200744      -1.00008954880641       0.53431682326352
C         1.96326341790779      -1.71481976043380       0.69215856244842
C         2.80618318164110      -0.67716173517348      -0.05397621521736
C        -2.75060605103422      -0.44735305364729       1.09738985906983
C        -0.37549063639366      -1.10952460511029       1.19968111301006
C         2.44995658998050       0.75385264467654       0.36023645200965
C        -0.01616424102897      -1.74025657553867      -0.87654052852932
C        -1.32450795749419      -1.38760750358319      -0.76483199787032
C        -3.10271640713229       0.87931425025040       0.41942699716430
C         3.30551358273629       1.77761119497528      -0.38081935468122
C        -2.02235426127490       1.93695246962443       0.63041582243742
H         2.05509336346474      -1.57855881863309       1.77277504534990
H         2.26870844317998      -2.72913366123693       0.42024183960071
H         2.67093690678579      -0.80493180776887      -1.13320728272790
H         3.85544544833296      -0.87951988219297       0.17985744844573
H        -2.57375403975998      -0.29572825539788       2.16539315317011
H        -3.55122573850657      -1.17888427201038       0.95580145560171
H        -0.22149448159756      -0.87429549936618       2.23978414937754
H         1.39247044439695       0.94158663312712       0.14923455755505
H         2.59824382406551       0.86274344432796       1.43790163505626
H         0.54454608322594      -2.10370269705964      -1.71977284490897
H        -2.11696285282822      -1.38754600985889      -1.49254044159427
H        -3.26382305871319       0.71173326608027      -0.65049071124259
H        -4.04603079005277       1.22397626279981       0.85244932856470
H         3.15334045776877       1.70081327438164      -1.45882787175656
H         4.36324715419568       1.62038071090831      -0.16614243956463
H         3.03143599502689       2.78232012015875      -0.06050962034119
H        -1.07863355590949       1.61648189168706       0.18829361603312
H        -1.86310729988617       2.10902306173208       1.69406575780148
H        -2.32679668548374       2.87242846955177       0.16242342353707
S         0.39217608786454       0.88797601500488       3.93766066936466
O         0.48396048529024       0.91459574575470       5.37034352148133
O        -0.95842718749358       0.74461488324468       3.39471232643474
O         1.36361321424327       0.02942324472677       3.25980784874382
C         0.88202545518980       2.58346327233247       3.36747220274462
F         2.16647186016289       2.82467111980667       3.59745614067331
F         0.16163096413397       3.52996774215457       3.95171667694475
F         0.68329694143369       2.67594001774844       2.04377631036802
