37
C11H23NO2 optimized with ForceField in AMS.
N        -0.40277351271950       0.16550888470878      -0.07480592357469
C        -0.96451247885345      -0.88913101318693      -0.97407934211849
C        -1.46764952130077       0.41288318933126       0.94493763587298
C        -2.42789103441774      -1.08710192569991      -0.62566610733995
C        -2.51207354358769      -0.67898308802904       0.81807889596795
C         0.83329316240990      -0.34008700000551       0.60706764233447
C        -0.14592275204068       1.41335781280604      -0.86438270167502
C         2.02599909882940      -0.60551028893715      -0.34300214670607
C         0.46417412753901       2.56917759652789      -0.04962831825323
C         3.17737567214503      -1.27795792959313       0.39899709613174
H        -0.46527054766358      -1.87508705168115      -0.83122237589708
H        -0.86535301248060      -0.64293972219336      -2.05590884869247
H        -1.99370415825507       1.38103611237307       0.77769155091246
H        -1.07879182003999       0.44509640430819       1.98819651608392
H        -2.75045740216195      -2.14162851477176      -0.77003975636642
H        -3.05973848344111      -0.41501233190186      -1.24740233698133
H        -3.52903900986554      -0.31331838199942       1.07998314254301
H        -2.24287463396354      -1.53793621768922       1.47153826053149
H         0.59624391770623      -1.28441935819535       1.15096871611155
H         1.16684313963772       0.37638917281074       1.38990974567999
H         0.52587510102151       1.20543213757188      -1.72600483605551
H        -1.09745134532137       1.77782199014690      -1.31575337403282
H         1.72487608877644      -1.25793213815420      -1.18877468433518
H         2.40807150734333       0.34817432664779      -0.76181643912892
H        -0.12202046501726       2.77962130831050       0.86781028647723
H         1.51423997305414       2.35020415754915       0.23141953691179
H         0.47181386265395       3.48870273492491      -0.67169754850106
H         3.53757436877792      -0.62507444405157       1.22281271019095
H         2.85111638491326      -2.25387591377019       0.81715749162868
H         4.01749638356642      -1.45812927415583      -0.30452223261284
C         3.72035660773257       3.08898681918774       2.88956717585256
C         3.39437696023515       1.90281109616890       3.74154589505812
O         4.26724850369560       1.37610161848792       4.41190634447533
O         2.25791490671435       1.45945882240327       3.77148265992799
H         4.08368773875716       3.91949546210873       3.53060974647772
H         4.51268400239607       2.81824482223995       2.16092958692406
H         2.82232722382471       3.43133561490198       2.33250848817710
