33
C9H17BF4N2 optimized with DFTB in AMS.
N         0.98211358444107       0.60855994846169       1.12577626281769
N        -0.94730535071522       1.22025346900845       0.39543932547904
C         2.28287410643847      -0.04373558777833       1.22643174711101
C        -2.12656889700180       1.33074615663341      -0.45436781595743
C         0.05938091015869       0.37503083145385       0.19371273216979
C         3.32784587358458       0.66265533036576       0.35141150420037
C        -3.29383303063693       0.53848033449099       0.13371137580298
C         0.57576154062859       1.66192304054639       1.90197568646690
C        -0.64377410710355       2.04338621755279       1.44208143450787
C         3.20632697613111       0.28757670314413      -1.12195636872478
C        -3.01195601449233      -0.96204884623171       0.18509570605701
H         2.16240896334718      -1.08979785808833       0.92869043022435
H         2.58096634875504      -0.00802721749450       2.27787047223517
H        -1.84606419115736       0.96575939769870      -1.44507965111583
H        -2.37253968531179       2.39219404335759      -0.52841672033328
H         0.11539798821237      -0.36177794037217      -0.58667232484692
H         3.21083359327232       1.74327170238536       0.46350843677467
H         4.31534576560059       0.37809097382953       0.72796822632123
H        -3.51212973806099       0.90774915282850       1.14073715009555
H        -4.17104633895945       0.72440533930789      -0.49192987053080
H         1.18106915381911       2.04796625818886       2.70286784816037
H        -1.29697307629510       2.84033831298114       1.75015580899485
H         2.25410141967946       0.62821149243287      -1.52460232698064
H         3.28534747030453      -0.79304572919102      -1.25513463466232
H         4.00606516426833       0.76935466027880      -1.68350106200513
H        -2.15474349410220      -1.17035126209821       0.82740951314558
H        -2.79968173008142      -1.34527097632617      -0.81368405829205
H        -3.87817222539281      -1.48956554036912       0.58365833706799
B         0.62502482964654       2.88785972123568      -1.60569450775086
F         1.15521942063716       3.56853003524505      -2.66668128635500
F         1.53200845407762       2.81641762539779      -0.52733838845931
F         0.32396815967007       1.53336046695982      -1.98693820149682
F        -0.56859045666190       3.47253062146454      -1.14810008032124
