45
C11H24F2N2O4S2 optimized with ForceField in AMS.
N        -0.84293105790554      -0.20753938744025       0.02550794981592
C        -1.16211990311602      -1.25912783042807      -0.98910334412896
C        -1.98842773886085      -0.23577007940332       0.98573423463142
C         0.42259988832559      -0.55662139884346       0.75054278858208
C        -2.58282369428426      -1.73650973511146      -0.75430093292501
C        -2.81295729832746      -1.47657481622092       0.70795136173396
C        -0.76757456271482       1.13106304413704      -0.64604190479127
C         1.69688558070127      -0.51558024830826      -0.12689547567525
C        -0.41074616088689       2.30107765120773       0.30166927582159
C         2.91018256196105      -1.04148324084558       0.64901981371253
C        -0.51641410328569       3.64211430843384      -0.41825950843028
C         4.17851061720883      -0.96717021757540      -0.19525232373892
H        -1.05453960401070      -0.90400807270916      -2.03947096042627
H        -0.50298717203642      -2.15223781182090      -0.89231564822954
H        -1.66938858839603      -0.22630481022895       2.05311312040818
H        -2.66884937269081       0.63727158706063       0.85421757396686
H         0.32840082117524      -1.57638302437321       1.19120069744289
H         0.57623476263085       0.12349947356329       1.61741969923185
H        -3.29131444832077      -1.13139386322178      -1.36230594103052
H        -2.70435437285808      -2.81395088240492      -1.00104756627949
H        -2.42944104461386      -2.32964746040093       1.31045210403912
H        -3.89059009996324      -1.31548922098173       0.93016211154855
H        -0.02554594336621       1.11184028838157      -1.47456080559336
H        -1.74426365790738       1.35711461777910      -1.13420299029212
H         1.56232562990149      -1.12804611473125      -1.04276600406605
H         1.91317336253675       0.52778937184955      -0.43561023979335
H        -1.08780049134286       2.32081463475364       1.18051557030153
H         0.63077090952887       2.20012091744008       0.66949317618144
H         3.05656626622225      -0.43646491593572       1.57006825047378
H         2.73626949862329      -2.09875778692860       0.94462886993416
H         0.18433250889097       3.67209892091982      -1.27962281176077
H        -1.55336985156056       3.80618997512606      -0.78033939797008
H        -0.25204439692215       4.46183126351803       0.28266476280620
H         5.03733779400388      -1.36639325197738       0.38439375519200
H         4.05983534340448      -1.57227393829190      -1.11733401278704
H         4.39677545441776       0.08549797743509      -0.47469524969501
N         4.72522072318248      -4.02533923887426      -5.53990989949484
S         4.11917912363034      -2.94257005875135      -4.47252843858930
S         4.45674356181347      -3.88135230769438      -7.14772560626733
F         2.48053466237205      -3.22025019659495      -4.26727661169460
F         5.31471814308409      -2.57106699202239      -7.74044174887675
O         4.81948382867848      -3.09760693120438      -3.15293201366705
O         4.31515172168732      -1.54536518834779      -4.99060187513292
O         2.99223444467571      -3.65912798731406      -7.40114901111808
O         4.90827393981410      -5.13205439891877      -7.84716793546991
