55
C17H32F3NO2 optimized with DFTB in AMS.
N        -0.44111893081619       0.60126614562450      -0.20750810556011
C        -0.72929691187869       1.43531077622436       1.01086971585436
C        -1.68603452584809       0.49675281584502      -1.03605584318484
C         0.58064682641941       1.32404766635908      -1.05422152932768
C         0.06304875817755      -0.74800398685681       0.22807713325977
C        -1.91017754748919       0.92111618604495       1.82207853534617
C        -2.87441539494330      -0.06130289522586      -0.26161431917108
C        -3.16819679941711       0.80078084492278       0.96507994431483
C         1.97455919906942       1.41949855310658      -0.44185586152399
C         0.46692766688407      -1.69096187510430      -0.90019607361160
C         2.86558836684847       2.32174390863712      -1.30162093642752
C         1.09289382763876      -2.94525930285186      -0.27507563879128
C         4.28549156669635       2.35616109234211      -0.72475928419158
C         1.58440704261383      -3.91343267352672      -1.35369526954554
C         5.18003724933745       3.31829559114566      -1.50280964818789
C         2.22480586387000      -5.15152763301696      -0.72865000188017
H        -0.92697366699609       2.45286244027137       0.66243910000703
H         0.17068734533431       1.42491517324576       1.63170698079753
H        -1.45996439723737      -0.13074801633594      -1.90022327071098
H        -1.91752508878524       1.50619395485232      -1.38855906130158
H         0.17775779797770       2.32586446755320      -1.23115296864553
H         0.62497717584139       0.80329837322679      -2.01420117079837
H        -0.72031947684199      -1.21219236999573       0.82765703905579
H         0.92493333046484      -0.56526066227623       0.87468669197274
H        -2.07914695303687       1.63486185635274       2.63237247309161
H        -1.67048832628136      -0.04234263423276       2.27832271562102
H        -2.68724861903772      -1.09557226942338       0.03760958035344
H        -3.73525377786484      -0.06075058953867      -0.93568521838299
H        -3.49365618849036       1.79552395756147       0.64296294232042
H        -3.97492551789193       0.35056179427915       1.54803217504699
H         1.92067878824795       1.83198984315557       0.56668409579294
H         2.42984424167822       0.42920949659427      -0.37583907203536
H        -0.39723874040258      -1.97386515656180      -1.51055094683542
H         1.20449071998984      -1.21967446571171      -1.55457951422225
H         2.44816016236125       3.33484985686219      -1.32556462098242
H         2.89262187160626       1.94545757687121      -2.33061429729587
H         1.93048750066308      -2.64043308891338       0.36015761226466
H         0.35256223643499      -3.44440311442354       0.35926255403197
H         4.71217913037179       1.34907286614084      -0.76104928489318
H         4.24352674833294       2.66222607674786       0.32500830163222
H         2.31688452699690      -3.40629910569849      -1.99075915240407
H         0.74258138679323      -4.21636224323952      -1.98712558578182
H         6.18173497404454       3.32169968181327      -1.07350718803511
H         5.25065637993793       3.01669528821524      -2.54924470387639
H         4.78047698504234       4.33284929572290      -1.46069575757624
H         2.57665864841174      -5.82569729732626      -1.50988812916200
H         3.07288988242532      -4.86666839133617      -0.10543792748001
H         1.50211057498279      -5.68400535486369      -0.10872321335977
C         2.72325491437026      -0.00693779987865       2.37834610804568
O         1.73597254157521       0.68590403437539       2.64332842263981
O         2.87993446222808      -0.86920916723303       1.51381373010228
C         4.02536648475024       0.32318271632599       3.25007882574577
F         3.73408956048368       0.79250588786625       4.47201109307441
F         4.75285132702636       1.28010535639280       2.62812396396737
F         4.83400911383043      -0.73288887940740       3.41360869424384
