40
C10H22F6NP optimized with DFTB in AMS.
N        -1.39830068498904      -0.63395063195460       0.63765576035294
C        -2.63659330086617      -1.12191803473578      -0.05870198604601
C        -1.90642641270682      -0.02128523558871       1.91874614928299
C        -0.72711144581089       0.40996934819496      -0.22285203059599
C        -3.70714230231997      -0.09097946046414       0.26373563071116
C        -3.34872776675436       0.41759301896450       1.66246904528585
C        -0.48810690811298      -1.77822979649395       0.95834502726210
C         0.62939040997020       0.88683223861711       0.28870405446055
C         0.06217399024154      -2.49000902054157      -0.26881115619736
C         1.18296271043353       1.94330418849492      -0.67688336045522
C         2.51805424239452       2.48941116227283      -0.17788732786564
H        -2.89238558175478      -2.09752125442244       0.36319788704234
H        -2.44096543239284      -1.22815878331840      -1.12542165118686
H        -1.85737840547799      -0.78448724074435       2.69832141536554
H        -1.26025360947260       0.81099251267868       2.19239674344585
H        -0.62072837739847      -0.01958837973542      -1.22193588848729
H        -1.41463204347187       1.25517986983316      -0.27566594487469
H        -3.68276187269815       0.72783249563834      -0.45703493696708
H        -4.69698529775536      -0.54839908302650       0.23552441146445
H        -4.00618431488481      -0.01469449506318       2.41937199560605
H        -3.43392060564414       1.50299367615081       1.70503290111983
H         0.32565041243627      -1.38696421251333       1.57209178363702
H        -1.06640501430664      -2.48216596652272       1.56272289881797
H         0.52466449669439       1.33023711528277       1.28106590764073
H         1.34011295721807       0.05751420429424       0.35479166630234
H         0.66210363694892      -3.33289782762852       0.07342387846394
H         0.69849565535824      -1.83756147575168      -0.86302452661501
H        -0.73967347676345      -2.87203217170447      -0.89844105209366
H         1.31292095238935       1.49627795744304      -1.66858857782024
H         0.46652798774997       2.76277601601446      -0.76407766712087
H         3.25462721884813       1.68927958921836      -0.08428325686131
H         2.39300852641022       2.96483675901697       0.79526325746973
H         2.89681928049904       3.23147882074919      -0.88019447856043
P        -2.25943460016124       3.97827862308765       0.72314280365476
F        -1.64676186496187       5.11922992733819       1.70346399025858
F        -3.43530458758654       3.61753874041827       1.82375406047648
F        -3.23474881772503       5.04007499513583      -0.02208808534961
F        -2.85042586576098       2.74009036556015      -0.26105101217944
F        -1.06795757432338       4.23654061997974      -0.38242165471755
F        -1.27375262699189       2.81845257032569       1.46329232277310
