45
C13H23F3N2O3S optimized with ADF in AMS.
N         1.10501148450411       1.83020961663407      -0.69942242318868
N        -0.43294173122836       1.23770306224712       0.71423141337068
C         1.97837442936092       1.86480749104893      -1.88060505562721
C         3.28066861199346       1.07087450363123      -1.67208373241767
C        -1.55783532611672       0.51455576421575       1.32745369343756
C         3.35998145787857      -0.20608896803017      -2.51000009586394
C        -1.11308375032414      -0.78014609486713       1.99747090986931
C         0.03413015470326       1.04614181974150      -0.52830173140417
C         1.34888139289928       2.50885339510876       0.47412856469612
C         0.38472733009903       2.13453782001930       1.36277764340996
C         2.31791153567624      -1.26392742437748      -2.14890602676073
C        -0.68729123159979      -1.86412167213056       1.01093440636050
C         2.50551503197105      -2.54460111260377      -2.95697586740836
C        -0.19628219690395      -3.11786491971051       1.72974930209880
H         2.17486175733349       2.92826910469634      -2.08373097363607
H         1.38939915457746       1.47492739385055      -2.72420925061038
H         4.13397070110495       1.72408539017232      -1.91605256643872
H         3.36007081127343       0.80470987275554      -0.60634269060514
H        -2.01367685248012       1.20868658914849       2.04852946941430
H        -2.29377781791053       0.32552389467635       0.52953359540442
H         4.36563840661457      -0.64031270087559      -2.36624740377759
H         3.28353096291001       0.04663217705440      -3.58604753021363
H        -1.96535088846994      -1.13632369596128       2.60473251410570
H        -0.28836166201993      -0.55249692785394       2.69523149778284
H        -0.37723266527513       0.36371275962290      -1.25912127932601
H         2.21021009180609       3.15298477904976       0.59559270139807
H         0.25955567573538       2.37317042356744       2.41053704401637
H         1.29972439659469      -0.87268314737979      -2.33701675727872
H         2.37995606883362      -1.47186227420304      -1.06733482194620
H        -1.53837152588780      -2.10752704288605       0.34429450368153
H         0.14089925608344      -1.48314423341429       0.39097380046514
H         3.50573908085179      -2.96981046957490      -2.77809590069795
H         2.41293455590793      -2.35130976922102      -4.03848307333800
H         1.76268472195646      -3.30847843609812      -2.68049345287097
H         0.71065897603026      -2.88902623113434       2.31076773306973
H         0.05267744493442      -3.91200250062580       1.00944902439405
H        -0.96472698504707      -3.50907846007540       2.41604421386024
S         2.64239279749519      -0.33635448233171       2.45787067359268
O         2.92797595655767      -1.64906008258537       3.03860022971609
O         1.88441477193014       0.60624409905709       3.30474612325531
O         2.21293037192609      -0.34983036699658       1.03769824276885
C         4.34003234209672       0.46789536236321       2.32631681394848
F         5.15091034245584      -0.24045988888854       1.49164218540097
F         4.95240383898598       0.56100314839993       3.53005695282564
F         4.25527670588192       1.74147129036440       1.81101035386684
