34
C10H22ClN optimized with ForceField in AMS.
N        -0.89544469841892      -0.14074911026818       0.03392051092217
C        -2.03026239632417      -0.19330779368364      -0.93788176123795
C        -1.20877578755890       1.01667372395142       0.92773954145324
C         0.38293449477620       0.10925325805250      -0.70925220393810
C        -2.82484494896658       1.09008585219811      -0.80436123207447
C        -2.62395526259494       1.47444328790260       0.63335942410240
C        -0.84986925138312      -1.40022621966758       0.84569178138659
C         1.64594871975598       0.16253855508865       0.18295007279682
C        -0.53325162365838      -2.67157599144576       0.03759065184996
C         2.86729515940364       0.61073051078660      -0.62868777993179
C         4.12228592901448       0.65441593665240       0.23772924054488
H        -2.73361622648612      -1.02892643529407      -0.71659073128657
H        -1.70120498726933      -0.32606372865924      -1.99361117872586
H        -1.10932831705872       0.77610671426659       2.01095886870152
H        -0.54363665751281       1.88977025842530       0.73474220038190
H         0.54083019203154      -0.67039839848634      -1.48687618577687
H         0.30393255804099       1.07108926602151      -1.26752857982466
H        -2.39402479979564       1.87200643291812      -1.46861063242839
H        -3.90052768326940       0.94203914660251      -1.04297012422496
H        -3.34248675298994       0.91939434335105       1.27676632818790
H        -2.74942257402274       2.56875886273738       0.78570442880676
H        -0.10248548529495      -1.31588827662705       1.66450875116666
H        -1.82856580241074      -1.55728178498223       1.35433338607574
H         1.49997930918207       0.86493905874085       1.03029053554571
H         1.85760287344637      -0.84436652092587       0.59760970822371
H        -0.63086586291717      -3.55641985798369       0.70146147062920
H         0.50707471743999      -2.65678960715244      -0.34383534668930
H        -1.23399236708544      -2.80288780776200      -0.81153380153969
H         3.03676963604331      -0.09568862708939      -1.47049485240113
H         2.68880105376803       1.62460535795274      -1.04894808134702
H         4.33658092655292      -0.35102943803838       0.65910213973195
H         3.99186843831645       1.38111271439170       1.06755493991229
H         4.98821345287663       0.97280063124565      -0.38008045322802
Cl        2.54820614106940      -3.50428345661982       1.99427125053538
