40
C12H26ClN optimized with DFTB in AMS.
N        -0.66912235285928       0.32368285066461      -0.17321334478172
C        -1.19124017899730      -0.43791584771032      -1.36010617498467
C        -1.83145727212858       0.73194155240757       0.68099811587852
C         0.28884745508111      -0.49306990613524       0.65187294187031
C        -0.00819613256556       1.56276087900847      -0.72714349473798
C        -2.01413213575449      -1.65349202715521      -0.96712845267323
C        -2.70686254129730      -0.44201737306878       1.11164967454301
C        -3.19914428833162      -1.24127079594466      -0.09468848142025
C         1.55155487955438      -0.95247646568142      -0.07047826135988
C         0.72080642452970       2.42951298694195       0.29366031651725
C         2.43954501088173      -1.72766742398542       0.90903476777066
C         1.25252932832606       3.67599338282639      -0.41556331672530
C         3.71118383156175      -2.20965005626740       0.21339579678966
H        -0.33310944153368      -0.70838619674666      -1.98499591954808
H        -1.81348528964599       0.26153397151068      -1.92501224456368
H        -2.42499842731421       1.43747114097556       0.09284452450830
H        -1.43955703329724       1.24905109658679       1.55930983670874
H        -0.25685543242015      -1.36770431110279       1.01085364911278
H         0.54952495748080       0.11596801164625       1.52161153929540
H        -0.80092110951810       2.14250482316697      -1.20741491204111
H         0.68615584344962       1.22528751235166      -1.50892409490670
H        -1.39885274311526      -2.39350823418586      -0.44916638252962
H        -2.37699448714407      -2.11330239206137      -1.88964480019556
H        -3.55994958826379      -0.02833808827588       1.65640418222385
H        -2.16269301015431      -1.09463409056299       1.79951780956673
H        -3.88926684704862      -0.62706053322956      -0.68217702541553
H        -3.73969561207582      -2.12635217849904       0.24891484124022
H         2.10755347203061      -0.10129009592125      -0.46501358676892
H         1.29511705540007      -1.59583131354795      -0.91344192194059
H         0.05375977133273       2.73103851952960       1.10753585946339
H         1.56402987853504       1.88651738148895       0.72741610426598
H         1.88800420418688      -2.58809129163423       1.30457768141990
H         2.70469807781747      -1.08265335625322       1.75437618878041
H         1.80407956058275       4.29487227774372       0.29134538344034
H         1.92055459356087       3.39147157467284      -1.22814353904100
H         0.43100425199439       4.26262645357550      -0.82769803193589
H         4.27894924368778      -1.36162007345191      -0.16964933064198
H         3.46215341823713      -2.86505903828121      -0.62122920281780
H         4.33551679777009      -2.76021132753035       0.91718002732963
Cl        1.44658841686438      -0.01677124396478      -3.13312141079559
