37
C9H13F6N3O4S2 optimized with ADF in AMS.
N         1.45627200291998      -0.29800417694193      -0.37322751325905
N         0.07340592967748      -1.46391535967104       0.82644373492480
C         1.12089667921337      -1.53973690424421      -0.00146246681593
C         2.58223042563907       0.04189539221856      -1.25885309776433
C        -0.56282102273280      -2.61789014008410       1.48963572430968
C         0.61125939997831       0.59751115952762       0.24985341536650
C        -0.25921465731293      -0.13625726465691       1.00329194717293
C         3.61442200067320       0.91203600524326      -0.56149696183975
C        -0.32434547581634      -2.59200971601257       2.98779219699558
H         1.64660205600400      -2.45779042261031      -0.24077031138310
H         3.02504987247300      -0.91446702245939      -1.56661317076226
H         2.15958915862408       0.52858623782606      -2.15284340450302
H        -1.63369885744751      -2.58480376247605       1.23170598574241
H        -0.11933256464156      -3.52265679004372       1.04810436088772
H         0.70016340980741       1.66707813682700       0.10994598154373
H        -1.07789060477555       0.17248870210783       1.64089880721757
H         3.21310935428373       1.90642060523499      -0.31683466976167
H         4.47257471736695       1.05029782897746      -1.23515573907789
H         3.95844889256220       0.41803310897511       0.35699970971818
H         0.75580920221420      -2.59508305247630       3.18780119627611
H        -0.76131582334206      -3.49933794705185       3.42921298037171
H        -0.78683363337540      -1.71560764969459       3.46654539055419
N         2.60209254230871      -3.62794586353542       1.44436825666762
S         2.48824644844647      -5.24388848746594       1.37288740550415
S         3.95630372283647      -2.80692154523630       1.73915114944680
C         2.51423003688272      -5.85129702538379       3.16640327718500
C         5.01106390134073      -2.92637236953615       0.15690624914296
O         1.11211147872136      -5.50224847236444       0.94797595514710
O         3.60618708402901      -5.91866700739493       0.73032077067334
O         4.81777653064751      -3.32316393461443       2.78973582119306
O         3.54741043651460      -1.39887847420975       1.73889440811427
F         1.99238977971066      -7.10099016620315       3.19836138721970
F         1.75311529824617      -5.04878232434229       3.95644416776071
F         3.76303106650752      -5.89054359054222       3.66154139076303
F         5.77663501235552      -1.80822265207252       0.05403060433637
F         4.21084575887194      -2.97722001926088      -0.95427939914752
F         5.81415443498779      -3.99710237955272       0.15515593567934
