59
C17H21F18N2P optimized with ForceField in AMS.
N        -1.09034417762084      -1.65660028519724       0.29088118141043
N         1.13227409425830      -1.63561209357409       0.33129420113964
C        -2.48156447730545      -1.43459080782977       0.67976719373570
C         2.50335119982388      -1.38743999741893       0.77274926051053
C        -3.07154781262466      -0.22678279767480      -0.05943681023548
C         3.14951980178927      -0.25600759555319      -0.03834182236253
C         0.00554733363364      -1.39420846689699       1.02917825435660
C        -0.64276360279553      -2.08856907211671      -0.90552949193762
C         0.73653423009412      -2.07853593647086      -0.87948739363666
C        -2.36730696827152       1.08032287032428       0.33214183436397
C         2.39405329468224       1.07070518974911       0.12489959017894
C        -2.99514686015444       2.27866690152005      -0.37215365617427
C         3.10636642134343       2.20560381569265      -0.60335504356125
H        -3.07683156318228      -2.34221251603695       0.44087637598705
H        -2.55075226206372      -1.26812520505067       1.77745269510897
H         2.51378882232263      -1.12122135413599       1.85239832874552
H         3.10021667361127      -2.31662083489114       0.65048258639311
H        -4.15122963869837      -0.15224421371926       0.19530851091951
H        -2.98881071987789      -0.38586031771102      -1.15687367388776
H         3.18043124148844      -0.53959316316607      -1.11280167582234
H         4.19771775414318      -0.12982138363169       0.30957208566681
H        -0.01661636039814      -0.99299242363098       2.03524527128765
H        -1.27099075793074      -2.36728533275740      -1.74157322859268
H         1.39962265826852      -2.34759571452893      -1.69137992334089
H        -2.43883690042320       1.23045988186488       1.43143653716549
H        -1.29272037773299       1.03086452594578       0.05339774111242
H         1.36663847821151       0.97430878865070      -0.28773311295456
H         2.31606963705952       1.33011198263801       1.20144736438878
H        -4.06631798604658       2.37280292227097      -0.09380309003977
H        -2.90953446042901       2.16605134966396      -1.47395379129691
H        -2.46621386469314       3.20654263937741      -0.06805493768634
H         3.18520742574205       1.97837005399956      -1.68780344197897
H         4.12377708789525       2.35454050074276      -0.18309767065431
H         2.52966521279878       3.14633985203431      -0.47830663147363
P         2.43036034682804       1.56047415557806       6.47291571930632
F         2.68696577748021       3.03753910374958       5.62041804777482
F         0.94004189593358       0.86860766261755       5.95288012347575
F         4.01648722420363       2.12980739343159       6.81985918880958
C         2.83049874893647       0.83027708448642       4.72822233346383
C         1.25612474939239       2.83830893150126       7.32932437042548
C         2.87335372036336       0.37678234833250       7.92066676747335
C         4.29055531493221       0.99199274709229       4.25075469914014
C         0.28437393494871       2.30073020822463       8.40994162036033
C         4.02782415374431      -0.61975574989773       7.70598822632910
F         2.02762548396831       1.45773976443137       3.78354042285704
F         2.51614352344652      -0.51881317927577       4.68403314871591
F         0.45883460876224       3.45089259073914       6.36712046455315
F         2.03102335989756       3.81998331820491       7.92890738336577
F         1.74749864543871      -0.36465123559075       8.23121071789144
F         3.21133334077675       1.13258150753036       9.03124023530337
F         4.40652400367956       0.47680720839849       2.97319075303822
F         5.16495113268206       0.30381247449496       5.06229482620853
F         4.66549644883811       2.32219887112975       4.20775874435125
F        -0.60978999268792       3.30499383086890       8.73798182950005
F        -0.44794355716577       1.21822692129158       7.96110684077230
F         0.94846430361428       1.95365066477489       9.56825935369844
F         3.82146523146406      -1.40856324347052       6.59540379716526
F         4.09808645414526      -1.45799092725845       8.80483949368158
F         5.24147872105987       0.03482321673321       7.60483838430385
