29
C9H12F3NO3S optimized with ForceField in AMS.
N        -0.48847587340056       0.00358887361522      -0.40537203304822
C         0.93993431141446       0.00238178602438      -0.74490579421266
C         1.78150579638380       0.00464245719047       0.53431976489764
C         3.27396494696213       0.00520718280206       0.22057408192225
C        -1.14996026617698       1.19118875164937      -0.24734035599477
C        -1.14031238583610      -1.18346918455275      -0.21009038826889
C        -2.50111318370436       1.20823467372048       0.10718892506739
C        -2.49442736231325      -1.20220743162720       0.13028876673758
C        -3.17581023056920       0.00262691591147       0.29208718214843
H         1.18861073650623      -0.89289409792336      -1.35836265401521
H         1.18957778664278       0.89394021153807      -1.36319428337904
H         1.53921374387906      -0.89653280916873       1.13833080553761
H         1.53759654411147       0.90692333920004       1.13603934656068
H         3.54666684634182      -0.90191641922665      -0.35964359354796
H         3.85077181256129       0.00686960499058       1.16954169827060
H         3.54552630169691       0.91120738715999      -0.36188714777312
H        -0.63213012631359       2.13352686204805      -0.38246897165319
H        -0.61194973144514      -2.12362583782666      -0.30507305624717
H        -3.01838340040739       2.14907482999222       0.24273178870116
H        -3.00743319031143      -2.14380366523351       0.27667318001446
H        -4.22221512148667       0.00200751485405       0.56803996670769
S         0.79972589557938      -3.43513103400826      -4.73002744866673
O         0.86392980999013      -4.94711694585084      -4.99131236883271
O         0.83414238140856      -2.83567011410616      -6.14342520634066
O         2.19883119300807      -3.11777227009764      -4.18196830124279
C        -0.58258821448793      -2.89023268306578      -3.68703292240788
F        -0.50326674170875      -3.51704351212123      -2.45962280644961
F        -1.77917186279910      -3.22076465468783      -4.29247425971065
F        -0.52015098962564      -1.52130530699984      -3.51205054397423
