27
C7H11F3N2O3S optimized with ForceField in AMS.
N        -0.52663550878524       0.19714923639506      -0.36396586408310
N         1.65692716772533      -0.06859156393676      -0.04680213212066
C        -1.92569166717557      -0.09424408531140      -0.66336812290609
C         0.50359776894227      -0.67013208097311      -0.39578725267455
C        -0.00798991106748       1.38351750218339       0.01303063829445
C         1.34877590628568       1.21838326166068       0.20690265457491
C        -2.73018661900241      -0.20144853695964       0.62648550835520
C         2.97493641184285      -0.68283957729349       0.04683535259025
H        -2.34606701039156       0.70919266166840      -1.30645037856750
H        -2.00260373542998      -1.05504374350914      -1.21770226998136
H         0.41360320238234      -1.71666826677776      -0.65839477565704
H        -0.57355863977961       2.29833608531593       0.13545895959984
H         2.05529853132392       1.97746675323262       0.51345134465729
H        -2.32029973345162      -1.01642065907379       1.26067422320044
H        -3.78960419188510      -0.43163203179202       0.38853409364828
H        -2.68756512935685       0.75561747378653       1.18807915353952
H         2.91374285789909      -1.76895693259863      -0.17895764990676
H         3.66220458473686      -0.20259485957749      -0.68048197021818
H         3.37701872396656      -0.55286301997226       1.07365374434095
S         3.65256046159674       1.86285583418679       3.78461675457032
O         3.39640886760972       2.11726610904791       5.27713036009649
O         2.37809571185935       1.13667671913271       3.33098164216005
O         4.70663786938768       0.74635844074093       3.79718859935239
C         4.09620545110458       3.33203230403293       2.81979471621969
F         5.25345574683479       3.88582465419921       3.33192182236894
F         3.07195305130732       4.25627098548756       2.89179141354599
F         4.30316600982034       2.97365684380485       1.50212249680022
