41
C11H22F3NO3S optimized with DFTB in AMS.
N        -0.00625868858050      -0.36900231929247      -0.13932750851029
C        -1.40923884136505      -0.33914154932148      -0.65943183709819
C        -0.12106988341008       0.36176235861686       1.16907234318044
C         0.91269075793984       0.35230970092294      -1.07767314274456
C        -2.29319068534964      -0.56356375808164       0.56558190599207
C        -1.45631398656538      -0.07786613744303       1.75907158152060
C         0.44842003025989      -1.78041229706379       0.11701560342636
C         2.35895410610562       0.41994621292384      -0.59041868929989
C         0.58043577268400      -2.65075208476381      -1.12106151152363
C         3.18313753515377       1.30444708447552      -1.53215190313170
C         4.62338362009417       1.42340209266625      -1.03786266954903
H        -1.53773068240974      -1.09019819230982      -1.43760978537762
H        -1.58105789250635       0.65145232117280      -1.08767635539151
H         0.72803956793541       0.11246060826096       1.80322088350298
H        -0.11773388102191       1.43154841620777       0.94715499260657
H         0.85144398331036      -0.15042297707899      -2.04630097988332
H         0.51207035257503       1.36395010279768      -1.19236892292313
H        -3.22253687175725      -0.00059508854044       0.46365960939722
H        -2.54599550499644      -1.62028830372181       0.67139807036239
H        -1.30188162379423      -0.88083872685315       2.48217495444847
H        -1.93378030196258       0.75872147223360       2.27140625009844
H         1.41361368681408      -1.70954771632317       0.61697321279629
H        -0.26113442453553      -2.22188015093507       0.81725274922944
H         2.39597009790018       0.82997181520297       0.42077441052265
H         2.79940240561648      -0.57840860346704      -0.55685683695015
H         0.87911738041156      -3.64158592112705      -0.77946160036959
H         1.35031029993208      -2.28086809842763      -1.79669053957036
H        -0.35648504525862      -2.74443980314976      -1.66894307877292
H         3.17246561767401       0.87590840765547      -2.54031640850659
H         2.73181422010970       2.30128823228733      -1.58676027329147
H         5.09219036497852       0.44070268472938      -0.98347681341824
H         4.64779178769779       1.87343571047887      -0.04516978996840
H         5.19986140648467       2.04863076609308      -1.71946050961272
S         2.06375796467229      -1.69400907226151       3.21125312639542
O         0.63303282387749      -1.93595651803339       3.04540585685024
O         2.49610712124223      -1.40170441387668       4.54913596563615
O         2.61098606289860      -0.82331096714944       2.16916506599552
C         2.80267174396352      -3.33879281882785       2.77665235793663
F         2.46396192480260      -3.63456512577922       1.50888325567504
F         2.34724819566053      -4.31192630090937       3.55240958182625
F         4.12599503671888      -3.32557420388773       2.84621714289418
