52
C14H23F6N3O4S2 optimized with DFTB in AMS.
N        -0.80791843721844       2.03585201834336      -1.19525567570251
N        -2.67850907519197       1.70209710139831      -0.18310453780085
C         0.24769532328301       1.93370124352031      -2.19867159505991
C         1.14731997068366       0.73130521400075      -1.89035314967072
C        -4.00596042908412       1.16061849424484       0.09534312775692
C         0.39214558029157      -0.59321161922430      -2.02693865130679
C        -3.90986465651218      -0.03323877371954       1.05089228527590
C        -2.03448275263215       1.53948315727462      -1.33495313095661
C        -0.66106462136360       2.51541980911588       0.07869519651538
C        -1.84298321956389       2.30607545423292       0.71798177063355
C         1.28344554976000      -1.79834290714123      -1.71689033551311
C        -2.80609117124332      -1.01617188108331       0.64456842888939
C         0.48771887004502      -3.09568854478638      -1.84824141776931
C        -2.97623863716318      -2.36172513855033       1.34450369272339
H         0.82263661917282       2.86309087359701      -2.18174888707711
H        -0.23265768247698       1.81542612779286      -3.17301680534815
H         1.98153154308257       0.75651838825450      -2.59717014968739
H         1.55577877086153       0.83523916059120      -0.87963414263036
H        -4.62228870069940       1.95440685893654       0.52518994177644
H        -4.43277768952458       0.84506331467848      -0.85943643804713
H         0.00951940392785      -0.68422489996407      -3.04604241018929
H        -0.46573757074487      -0.59386472228508      -1.34589422744703
H        -4.87886244129473      -0.53849590534600       1.02108695741774
H        -3.73840814400632       0.32028850487506       2.07233593509272
H        -2.44528357045620       1.09454167770301      -2.22774267099929
H         0.25472355720893       2.96517645049810       0.42061486092512
H        -2.15157588250966       2.53805649477856       1.72217062427830
H         1.68582941443678      -1.71044563571321      -0.70114253755205
H         2.12904912197165      -1.81270515436713      -2.41269178528898
H        -2.83868630230409      -1.16729823481928      -0.43772876798019
H        -1.82724942333623      -0.59197423927517       0.89406186318926
H         0.04108635561232      -3.16792400032563      -2.84028698668754
H        -0.31230655764967      -3.12711100212893      -1.10790185233902
H         1.14091821853245      -3.95448300771075      -1.69250003142623
H        -2.95277802179378      -2.23954540388482       2.42832998102923
H        -2.17023972191570      -3.03364844134188       1.05015382922204
H        -3.92639213787738      -2.81568215251678       1.06244803978622
N        -3.54942523137499      -0.56579274997214      -2.89840163585418
S        -4.71547452726372      -1.65263333018691      -2.65864979849004
S        -2.62325325159266      -0.71575519128391      -4.20145838659785
C        -3.93334732860808      -3.32683004100951      -2.33687793075806
C        -3.63904840247438      -0.53401247287392      -5.77113146043123
O        -5.30403525222558      -1.29378137562548      -1.38730364660964
O        -5.58591112364142      -1.85069656369375      -3.78684213389874
O        -1.94702779890100      -1.98653057367756      -4.31370990219757
O        -1.79323538611066       0.48003590547352      -4.19674103949526
F        -4.71460631086958      -4.00298304152646      -1.50849249237201
F        -2.74800160351165      -3.17153236806387      -1.75395462997743
F        -3.78622671023750      -4.01229639303538      -3.44876831205917
F        -2.84783100217879      -0.04147792195233      -6.71111490976121
F        -4.63290763323711       0.31265564863954      -5.56452144903117
F        -4.11143916928058      -1.69335026886436      -6.17055450149842
