35
C9H20BF4N optimized with DFTB in AMS.
C         2.83247120603806       0.45492090575617       1.04625656834622
C         1.77569341283920       1.41061709725821       0.50386066467188
H         1.17802855517399      -0.73141980208161      -1.12775453922304
H         0.27252136243599      -1.51002787686456       0.20438629238227
H         3.04739334883787      -1.45540699445068       0.02778753341837
H         2.20434806517485      -1.56257755466380       1.58568699745887
H         2.95531122935198       0.56688562906578       2.12622533774139
H         3.78701721389981       0.66388721240105       0.56165911591919
H         1.57537081443318       2.26270938045412       1.15465307189155
H         2.05268226503860       1.76232822550596      -0.49204405536966
H        -0.99395827094423      -0.18495761722448       1.61203146594906
C        -0.16299573797772       0.51399773454392       1.67502944153112
H         0.54634129723934       0.16479574617023       2.42221782579525
H        -0.52920664079565       1.50248846374755       1.94725415643014
C        -0.35816150033798       1.25190822975722      -0.66803354466625
H        -0.52292665152856       2.27021274889333      -0.30460897996387
H         0.22362890435777       1.30132954103537      -1.59130066181768
H        -2.23091223575121       0.35051548549549      -0.00920609555664
H        -2.97320345227416      -1.86530130854681      -3.03220276008414
C        -1.64775985212489      -0.64446000220671      -1.84901897095751
H        -0.95782000399966      -0.45345054609963      -2.67543898699296
H        -1.27478998435712      -1.50718349695458      -1.28985574107890
C        -3.03187887669152      -0.97734365249306      -2.40317890077863
H        -3.41267895244030      -0.15096938174311      -3.00443014746839
N         0.52123607533396       0.59560002222384       0.36036577727107
C         1.01793187611391      -0.75660510106867      -0.04917101480534
C         2.33922939321005      -0.95384197130355       0.68829454722955
H        -3.73582191935422      -1.17108574154405      -1.59203040912129
C        -1.70864537405247       0.59034670528405      -0.94024354546164
H        -2.30238336623753       1.35805584909789      -1.44859965384462
B         2.37934969873069       0.76034003379748      -2.86268590016181
F         3.12410840281433       0.20767496781159      -1.78991555093665
F         1.19778066016129      -0.02466025929340      -2.99259318323334
F         3.09531310793376       0.79260717971003      -4.01840487701663
F         1.96191212964865       2.05310893792943      -2.45512229749697
