60
C18H39NO2 optimized with DFTB in AMS.
N        -0.17627325998150       0.02439670853907      -0.04489024395382
C         0.64716698554036      -1.06206554832778       0.60962083360627
C        -1.03501326372412       0.65377033730801       1.01276219185819
C        -0.99573919199214      -0.60464750257622      -1.14157128704848
C         0.69514605343603       1.08085745985174      -0.67017360925646
C         1.77886971542729      -0.59173050325644       1.51602197164955
C        -2.01036806972509       1.72211165450535       0.52129441214521
C        -2.05565956201656      -1.59920881159508      -0.67727940805456
C         1.66961555343276       0.55133162635659      -1.72070406891202
C         2.59410576326283      -1.82623271633050       1.92680932707881
C        -2.88193617753994       2.18958961301273       1.69385850535204
C        -2.53315494340486      -2.40038292888961      -1.89610078156468
C         2.76780549811920       1.58317919131334      -1.99531161756105
C         3.76739864284575      -1.43940774703098       2.82284010265900
C        -3.87160135796844       3.26420053197782       1.24893369555927
C        -3.62733692417051      -3.39182303791495      -1.50948348300754
C         3.77011230317136       1.02569379170128      -3.00485366581457
H         1.06139754983099      -1.67443110164185      -0.19661478241948
H        -0.04548247184587      -1.67862029932885       1.18510104770823
H        -0.35846232468510       1.08892863433855       1.75269490913368
H        -1.59172720792185      -0.15480466751297       1.49238371217771
H        -0.28384893835572      -1.14189413667056      -1.77498573824307
H        -1.45430953065598       0.20202444173288      -1.71840646220748
H         1.23306704439888       1.57562649034848       0.14214633274551
H         0.02678802984810       1.81486613156559      -1.12717233742109
H         1.39233066578633      -0.08016699196796       2.40429277865147
H         2.44444471587580       0.09516884290371       0.98892139446382
H        -2.65479382780764       1.32274719536915      -0.26540950460936
H        -1.46986215667930       2.58073491497047       0.11466027940561
H        -2.90112437175470      -1.08527631970318      -0.20817955689579
H        -1.63185457799021      -2.29767232408721       0.04727299200255
H         1.13457899368761       0.33712085263307      -2.64930723933855
H         2.14202801181869      -0.37722423922310      -1.38805416139895
H         2.96552138093315      -2.31202750651981       1.01866702561869
H         1.94627983917373      -2.53505330507514       2.45304616737951
H        -2.24123249830779       2.58773695572598       2.48762799289848
H        -3.43033497551363       1.33443580576790       2.10240889630083
H        -1.67670955846152      -2.94077663610552      -2.31119607427946
H        -2.91102568340648      -1.71426851977535      -2.66187790680295
H         3.28739775968915       1.81932584909520      -1.05990877561625
H         2.32784105830218       2.51104167032593      -2.37843215304270
H         3.41490804689803      -0.96061510953038       3.73843623884146
H         4.43286071380930      -0.74837858700718       2.30349791690077
H         4.33511919511098      -2.32980048986707       3.09279630104231
H        -4.53211531784827       2.87719547737855       0.47219481272635
H        -3.34211043267055       4.13237920497580       0.85474441966071
H        -4.47913411605690       3.58207128055191       2.09594436050920
H        -4.49460142567220      -2.87154864691952      -1.09845858954934
H        -3.25745309361299      -4.09494515964024      -0.76221564021748
H        -3.94369354021612      -3.95422164072483      -2.38791767415652
H         3.28001187743560       0.82962541396447      -3.95913755672812
H         4.19395045362634       0.09166112413699      -2.63499354381526
H         4.57721293479054       1.74033985581953      -3.16633588514362
C         2.42498874292864      -4.15132994498070      -2.85411549230653
C         1.86249858843211      -3.06500943327144      -1.90989988018272
O         0.61567542903962      -2.97378544848617      -1.84221701080802
O         2.68897977577235      -2.36487303587027      -1.28655816615587
H         1.95825435364183      -4.05507649950250      -3.83342838558345
H         3.50522449866121      -4.05576846394237      -2.94328209102949
H         2.17616652605926      -5.13055535669440      -2.44643787435051
