37
C11H20F3NO2 optimized with DFTB in AMS.
N         0.76513475289959       0.28462704730672       0.40881867470996
C         0.19380034394455       1.15704672846761      -0.67282149697835
C         0.92213628989197      -1.12135686021661      -0.09618245673496
C         2.11459041274556       0.87479914707389       0.74468809490476
C        -1.10443740298201       0.62048928084353      -1.25986364341789
C        -0.35104015312113      -1.68844554399379      -0.70949308386537
C        -0.88895856268110      -0.78499477560794      -1.81514579348442
C        -0.09855596103015       0.31582368590012       1.61612445688104
C         2.97051209058389       0.05596256032637       1.70651147385756
C         4.36537345432417       0.67845768012184       1.76477293884975
H         0.95005922582364       1.21377953038092      -1.45845372200917
H         0.04902152299773       2.15152466493203      -0.24347134048264
H         1.23099210925447      -1.74005067195566       0.74759065646962
H         1.73062415776321      -1.10052948476894      -0.83280734023191
H         1.92659946069171       1.87311612172973       1.15027909779135
H         2.65074675606809       0.96969632652829      -0.20183247556307
H        -1.40100810855994       1.29896968355540      -2.06377877970972
H        -1.90288343613565       0.62020390704861      -0.51146140579033
H        -1.11625498410785      -1.84327396225875       0.05837976308780
H        -0.09288670605109      -2.66505849774440      -1.12658459369397
H        -1.83195379841111      -1.18408108305067      -2.19558060460045
H        -0.17151590754386      -0.74744306716007      -2.63892299958800
H         0.35413417800297      -0.30059352211797       2.38978998114246
H        -0.18402348156101       1.34377357775821       1.96460479409234
H        -1.08471267688852      -0.07268522651341       1.37488839491524
H         2.52345529861214       0.02765832880376       2.70497810539471
H         3.07645754250401      -0.96595822234402       1.33834936529996
H         4.82515538612023       0.62670651272712       0.77729135619661
H         4.31618775173554       1.72050084382270       2.08417382168879
H         4.98429388047227       0.12341579686113       2.46867765979617
C         4.06288287878439      -0.55594503761472      -2.33462253560102
O         3.70753087953023      -0.57858251497811      -1.14965433803240
O         5.12189484548429      -0.43743993830664      -2.89951156012617
C         2.74756346390817      -0.69049021352283      -3.32279707977159
F         1.92479968119684       0.39332412483675      -3.15021458532373
F         1.97208774806167      -1.75705853223988      -2.98693848838059
F         2.98292084047207      -0.78057665463031      -4.63040399679240
