32
C8H15F6N2P optimized with ADF in AMS.
H         2.75448407107039      -1.77237640076101      -2.58403385321707
H         1.20296542537512      -2.57765680958521      -2.17824639867706
H         2.53707705572609      -2.63750450998942      -0.99668387307028
C         2.05867430722617      -2.02715716137891      -1.77534152952124
H         1.77549203628839       2.06583236684219       0.41884589169418
H         3.43291863682543       0.27429853699009      -0.92806550776040
H        -0.50132183741619      -1.26890988706061      -0.84998340730991
N         1.57498656958110      -0.79273823820441      -1.15975247156965
C         0.32220256328049      -0.57460808598151      -0.74764921585143
N         0.28326985758753       0.59932032120092      -0.10424393903889
C         1.55588389288592       1.13010141963690      -0.07862210124982
C         2.36644040459219       0.25455541075893      -0.74069385111707
C        -0.89751218282243       1.12766902172595       0.60040224914907
H        -0.77493232724193       2.22175371089555       0.64112860875659
H        -1.77027770043545       0.91311316778291      -0.03492345465992
C        -1.04986601859538       0.52510242545409       1.99337762030591
H        -1.08333151710579      -0.57530112134947       1.91508108541852
H        -2.03171060865991       0.85601693123490       2.37888950944530
C         0.05564398648263       0.92503897974004       2.96833839733143
H         1.02654522948694       0.58831408709908       2.56955908335669
H         0.08701063837008       2.02860673019836       3.05904465805785
C        -0.14743365702978       0.28410207037729       4.34055421742724
H        -0.14670074898852      -0.81209431711845       4.24635435569355
H        -1.10460113793976       0.59686808737459       4.78866319454025
H         0.66082907577645       0.56491018937857       5.03253312584076
P         1.15468388205396      -3.14526883037225       1.84765425834268
F         1.52675197261166      -1.52734260772212       1.60042042553788
F         2.53616739287499      -3.54758503483126       1.01214334953559
F         1.97911317759184      -3.11099365572184       3.26031402920030
F         0.78315704687361      -4.72412139862135       2.03900144535696
F        -0.24176352924909      -2.68809493009779       2.61308189705838
F         0.31169915372324      -3.13022940559474       0.38417896609360
