37
C9H20F6NP optimized with DFTB in AMS.
C         2.40456802516461       0.48240933008505       2.06217535822827
C         1.39133679431766       1.41572860025032       1.41621046000402
H         1.48115559087648      -0.35029778618690      -0.65272577419563
H         0.45718825602611      -1.51207070486146       0.22710165080054
H         3.15113496429809      -1.14018126712420       0.79375682234677
H         1.99269699494484      -1.65744179377023       2.02439821742378
H         2.19918578077493       0.37050708305018       3.12843416263751
H         3.41249641781216       0.88431460838089       1.95004516225264
H         0.95655099013338       2.13384413360405       2.10689862597841
H         1.82997858839625       1.94240149655859       0.56538887243356
H        -1.18505700838947      -0.77953564241711       1.61017488887921
C        -0.57857891410081       0.04858128239245       1.97043181929243
H         0.02730307110796      -0.27627143032058       2.81142876863591
H        -1.20944180248161       0.87677056862503       2.28171437825748
C        -0.45429964171033       1.28239522737370      -0.15869096981431
H        -0.72499200995370       2.22329211230463       0.32782504887886
H         0.23554488011663       1.49588290951644      -0.97972808453463
H        -2.39841465410233       0.36529697036857       0.12568197637434
H        -2.64591255315334      -1.78990654395679      -2.99337920929309
C        -1.51628860605003      -0.57042595674235      -1.61653444372605
H        -0.73018966316944      -0.34263573477388      -2.34453629809917
H        -1.19651093061757      -1.43979745394182      -1.03405147432591
C        -2.80753425234435      -0.92158801246165      -2.35487709557862
H        -3.13123741408993      -0.08674610979974      -2.97714443632156
N         0.31795421994480       0.51293938519001       0.87499895825189
C         1.09983338162483      -0.63861074497637       0.32947778246489
C         2.24105547357728      -0.85650445726407       1.32515218873807
H        -3.60102603976021      -1.15424793140370      -1.64400580822544
C        -1.72894846281444       0.63489937040539      -0.69425494380860
H        -2.22933117953582       1.42375398164314      -1.26607739863170
P        -0.67421525698055       3.36505917558840       3.85957371815396
F        -0.25117836621693       3.70091371737553       5.38838822116372
F         0.01202783934707       1.82668195186367       4.00501940756605
F        -2.10812111213235       2.73582187951882       4.32840509587252
F        -1.07250788249929       2.96658081755351       2.24950034825675
F        -1.32986911143588       4.83430472732127       3.64262613111761
F         0.78783482917530       3.90189717943118       3.29563377374554
