41
C13H21F3N2O2 optimized with ForceField in AMS.
N        -1.27969981963596       1.30831538190016      -0.23048572795877
N        -2.69283741876455      -0.37391753362489       0.11434051189118
C         1.10569842408403       1.95122464255272      -0.20907144770910
C         1.59480806291023       0.50727720681356      -0.38434306925765
C        -0.26939974825999       2.16025937901373      -0.85560957681981
C         2.99886521487892       0.31582440434001       0.19481202387832
C         3.45347915215334      -1.13883488848629       0.03336429858459
C        -1.82239188261526       0.18797452647134      -0.74666156822134
C        -1.81701849461431       1.45476016097128       0.99716531600505
C        -2.69578490336475       0.41105353866905       1.21060721643660
C        -3.40344586684426      -1.63792419565622      -0.05931328098471
C         4.84398346138027      -1.35361179000906       0.61945656045330
C        -4.86680242884908      -1.38300641167199      -0.39352340019025
H         1.82909071665239       2.64619993559084      -0.68860079835569
H         1.05106657745778       2.20390875686783       0.87244135310782
H         1.60424313787300       0.24851141087311      -1.46603936252936
H         0.89688936319069      -0.18167603789646       0.13636974218378
H        -0.57071262543728       3.22489619447702      -0.75133942680566
H        -0.20388396932746       1.93688283116314      -1.94313730249856
H         2.99128729274326       0.58328673859907       1.27470954764280
H         3.71143915293853       0.98668933940915      -0.33340814475862
H         3.46891180305107      -1.41127601843132      -1.04447280258403
H         2.73956542602255      -1.81182892194290       0.55224048171369
H        -1.56428199539319      -0.22687433585194      -1.71395210553714
H        -1.57307759412715       2.24933884588378       1.69084336200616
H        -3.27290998034259       0.22321214033625       2.10712102990178
H        -2.93950975643144      -2.22444897259114      -0.88194161297032
H        -3.33120363050482      -2.24017451189406       0.87244565971416
H         4.84634025497241      -1.11232598122889       1.70372964876947
H         5.58448973637421      -0.71138157699453       0.09731198931842
H         5.13979615675724      -2.41614315297463       0.49096711505098
H        -5.35866232936478      -0.82822976440573       0.43300553832771
H        -5.38934508225384      -2.35193292960505      -0.53657281224405
H        -4.94384340746907      -0.79259083055107      -1.33116256463169
C         0.33594734900221      -2.77011129331323       1.90842832833769
O        -0.51238888275336      -2.25840485554512       1.19720686762992
O         0.84612191903211      -2.11636110608472       2.80380781809647
C         0.75450450953261      -4.19204898471308       1.68689104916119
F         2.10990430942665      -4.23966057065205       1.41961383407536
F         0.06492450353689      -4.74050261360456       0.61926039098033
F         0.48881074938273      -4.93245680760311       2.82352921668998
