29
C9H14BF4N optimized with DFTB in AMS.
N         2.03122590849206       0.43785391738942      -0.45931635966974
C        -0.34390753547273      -0.06611601205181      -0.08768197188602
C         1.01136525172507       0.19987607918281       0.56655101026982
C        -1.40743865406145      -0.33708926489313       0.98118566325658
C        -2.77122870339608      -0.60641778732329       0.34908285342853
C         2.47873964652213       1.68226591453436      -0.67481720809166
C         2.60042856994108      -0.62104335682017      -1.05422406026965
C         3.48487485155622       1.91448449879594      -1.58809347073605
C         3.60694812085236      -0.44046978834888      -1.98277009087986
C         4.05870161205203       0.84126510703877      -2.25856449696832
H        -0.26259824527803      -0.92836242901149      -0.75745934332626
H        -0.63293918416741       0.80129572027157      -0.69047174132700
H         1.34774456989695      -0.65531567920010       1.15786626293761
H         0.97573237446197       1.07775836695875       1.21341760196875
H        -1.10467667191760      -1.20101692418597       1.58121333091371
H        -1.47762747734552       0.52725091871510       1.64926757734796
H        -3.50952863639962      -0.79602332917788       1.12788012015897
H        -3.09770026292723       0.25279905555036      -0.23824036922261
H        -2.72441568009919      -1.47761091012424      -0.30551812480520
H         2.02961878104983       2.47333146389083      -0.08862665842993
H         2.22903145504434      -1.59938400951801      -0.78182872938041
H         3.83983071603845       2.92487918648596      -1.74288053962196
H         4.05781234647809      -1.30624737786780      -2.44980940461399
H         4.86488623527647       1.00217038971947      -2.96349367953602
B         4.21804070645671       0.10476585368484       1.51737308922609
F         4.99646317547599       0.51643118585863       0.43175403425124
F         3.50752116256690      -1.08061707098143       1.11253820679263
F         3.23543506471162       1.10548761635316       1.76409959221938
F         4.95885889596664      -0.14576892772575       2.63567009599343
