49
C13H21F6N3O4S2 optimized with ForceField in AMS.
N        -1.27995049818641       1.30188851602034      -0.22415076728531
N        -2.65476760138172      -0.40670621329212       0.14268367073624
C         1.10456889570948       1.93600091603150      -0.20796783420240
C         1.57968784242038       0.48503609312453      -0.36867454825845
C        -0.27008922023297       2.15286507639459      -0.85123677776086
C         2.99076227671696       0.29657569259007       0.19207117032531
C         3.43567900916226      -1.16398983540878       0.05965122912148
C        -1.80184302572572       0.16631786756975      -0.72782645870439
C        -1.81579212140598       1.44846699284865       1.00446281998243
C        -2.67240320168495       0.38968912933134       1.23074945977812
C        -3.37380581854776      -1.66487427845233      -0.03651950515476
C         4.83230924024704      -1.36696220291452       0.63501532434070
C        -4.83286143910112      -1.39326847466374      -0.37788748941674
H         1.83315655095095       2.62024159586700      -0.69543804396627
H         1.05441866138520       2.19923369354154       0.87108573921257
H         1.57332366455966       0.21050799226215      -1.44684445019577
H         0.88543496060221      -0.19292063928414       0.17434741315562
H        -0.56672008237683       3.21868154415438      -0.74405146623441
H        -0.20698050745238       1.93113746553965      -1.93960104480215
H         3.00244280366976       0.59153642146724       1.26351580707937
H         3.69872471877473       0.95125397710843      -0.36234063541864
H         3.44186044129553      -1.45769769313310      -1.01296923916716
H         2.72494114903072      -1.82547773118151       0.60198537913542
H        -1.54515367778377      -0.24789226904843      -1.69503927937595
H        -1.58740380488324       2.25412326209726       1.68997812074781
H        -3.24892162598562       0.20428719244384       2.12777841828806
H        -2.91389292421929      -2.25131363092611      -0.86180960534458
H        -3.30904696591695      -2.27035140521018       0.89368825983182
H         4.84087870840489      -1.11860947212213       1.71770442597755
H         5.56495828847822      -0.72327583736611       0.10306343644652
H         5.13334302871508      -2.42819717486089       0.50993942775610
H        -5.32142335522981      -0.83172500075974       0.44616416157449
H        -5.36770938262682      -2.35488650414936      -0.52579382948836
H        -4.89676384922559      -0.80006037051916      -1.31513771950943
N        -0.44638803216634      -1.67078722328950       3.52562354329763
S         0.27477642640391      -3.04066939301164       2.98785723795328
S         0.05933467189555      -0.87072067380437       4.86406780349026
C        -0.53762652962199      -4.45199533343444       3.71129131296157
C         1.10308668133467       0.48430537922592       4.37130390973707
O         0.13958761477976      -3.11588282102661       1.49361101664045
O         1.73091420557368      -3.05385989441206       3.36267044858694
O         0.82645640199973      -1.78741329914626       5.77638129696273
O        -1.13462282428755      -0.32184641873416       5.59197740103571
F         0.04898182407461      -5.61370068193758       3.24732170149185
F        -1.87417013222790      -4.44349936544672       3.36125590119960
F        -0.42606037837775      -4.40273026388721       5.08746701106549
F         1.52389919817416       1.17698939470182       5.49023661478827
F         0.39509358466132       1.33571380746272       3.54549768012644
F         2.20413369452800      -0.00095841685981       3.69366983575872
