58
C16H22F18NP optimized with DFTB in AMS.
N         1.35354948655434       0.19560808124071       0.34634830051550
C        -0.11376619855686       0.45169393507410       0.49699859727611
C         1.86273918095299       0.25535503553107       1.75680383605145
C        -0.52195133352530      -0.26076606301855       1.78400403246805
C         0.76757553853903      -0.37419584103579       2.61238429087925
C         1.97657767898357       1.26686675070305      -0.50429533853884
C         1.60498113184601      -1.18561777830843      -0.19384092341035
C         3.48752441238873       1.12059182886443      -0.66360188271731
C         1.22066541633806      -1.40083550252122      -1.65502324469522
C         4.04628702591368       2.27471470438123      -1.49118903548042
C         1.49870550370099      -2.85914788480776      -2.02151172507673
H        -0.25236929446291       1.53130205508385       0.58871523832391
H        -0.64430891144860       0.09749629435991      -0.38610538777795
H         2.81059205816462      -0.27358357367602       1.82557437647907
H         2.01249159861256       1.30588086627776       2.01369091771337
H        -1.28640863881009       0.31797210742937       2.30480563077349
H        -0.93371204753521      -1.24848923610319       1.56792819828153
H         0.99800858155030      -1.41890808592147       2.82891282675369
H         0.68258121870728       0.15694477847760       3.56151512153045
H         1.47305126249497       1.24261947841187      -1.47379720106478
H         1.74282476369364       2.22039230861625      -0.02193074509448
H         2.66787478224100      -1.38192865688469      -0.06664086315539
H         1.05072635160509      -1.87822263705903       0.44284054126906
H         3.96390360481412       1.12215403975249       0.31702825132949
H         3.73067569720824       0.17885939404828      -1.15783806879324
H         1.81336034922296      -0.75316995821423      -2.30530407396131
H         0.16318691173351      -1.17341202343141      -1.81911863846276
H         3.63972136884521       2.25830521585770      -2.50313950826552
H         3.80553299314478       3.23466700685271      -1.03285986944624
H         5.12924335440449       2.17280130188584      -1.54575323926519
H         2.55371774504962      -3.08935935115787      -1.87496294768367
H         0.90406255933546      -3.53144436792744      -1.40259984519735
H         1.24461227293451      -3.02889927624955      -3.06691038697498
P         6.77818164007017      -1.18518566618383       0.72968027540166
F         7.21659494430148      -1.95544236465931      -0.68392900031735
F         6.02874153846728       0.03662535963878      -0.18115632649702
F         7.45001723950977      -2.38370164388329       1.69240328818257
C         5.14691714047153      -2.30312861951224       0.54501200188908
C         8.52917594965387      -0.31250240546552       0.65697777858853
C         6.13853848526105      -0.16824764361364       2.34832833873929
C         5.29020724472794      -3.84800985995129       0.60461476755489
C         8.67131236589859       0.95998629747373      -0.22003002113990
C         6.19978919795325      -0.81880888608205       3.75172679752431
F         4.59317543221086      -2.03730372222582      -0.66518083389788
F         4.16503366461091      -2.03167580920180       1.44886055346493
F         9.41136136504640      -1.19969864810948       0.16988493633112
F         8.94702438594286      -0.00344822891920       1.89752601243263
F         4.82843203753968       0.17865372108899       2.16789429944220
F         6.79305193367642       1.00309758937520       2.42529439215666
F         4.12243990412053      -4.39561995661993       0.21760172079432
F         5.52590972989344      -4.25872124817816       1.84455941759863
F         6.23447963562613      -4.32090156864529      -0.19078913469765
F         9.92762487743289       1.40742006379567      -0.19426727348329
F         8.35874505532960       0.69434592400723      -1.48677918064733
F         7.88234775085886       1.94795775333505       0.20085142424018
F         5.58275819166627      -0.04339946055675       4.65273467816736
F         7.44751616330263      -1.00362240750452       4.15491654536067
F         5.57419052828673      -1.99686121353415       3.74823228862872
