41
C13H24N2O2 optimized with DFTB in AMS.
N        -0.70174658022869       1.48805802679065      -0.00397230725039
N        -1.70262357926436      -0.14657698897085       0.97843815737767
C         1.58217508785579       2.06114506317185      -0.67610208332865
C         2.04970323228345       0.62014592717573      -0.88757056205981
C         0.08791146961504       2.23481254921510      -0.97401099168356
C         3.46881586010977       0.42701022281356      -0.34636890413184
C         3.93950198260334      -1.01728493374289      -0.53732878197430
C        -1.15954349974090       0.24596151805918      -0.17556783855748
C        -0.90037925903927       1.86524476255212       1.29701361901034
C        -1.53405680236100       0.83316949518334       1.91706798859052
C        -2.12896166329849      -1.49935836916582       1.30883300319070
C         5.31462546959627      -1.24094052076597       0.08975275915039
C        -3.60652101741481      -1.52832750059522       1.67569270739449
H         2.13600196332307       2.74197549683796      -1.32908549357133
H         1.76307986134084       2.34595191521583       0.36301292262498
H         2.00472766942130       0.36309597628172      -1.95259705654850
H         1.37870692305318      -0.05169291218814      -0.34367808778522
H        -0.19546822862822       3.28785120393258      -0.89576363008704
H        -0.16481421019300       1.86933789577085      -1.97366992475409
H         3.46410940177854       0.66881164001479       0.72063603304876
H         4.15830934716954       1.11282935720034      -0.85118373208402
H         3.98117784926482      -1.25476492390302      -1.60653527240097
H         3.21721833614034      -1.69688589973358      -0.07209815519238
H        -1.13585821461041      -0.31899262597203      -1.09059728688699
H        -0.54140495462194       2.80218377299157       1.67995324398494
H        -1.87590682268731       0.72267746912643       2.92818962669900
H        -1.92792741874116      -2.14019667677754       0.44678342722396
H        -1.50177923230656      -1.80949821198399       2.15372110152687
H         5.28654444065496      -1.01303253920022       1.15611594502445
H         6.06133143130071      -0.60041449337225      -0.38221761716881
H         5.61940174586381      -2.28073695125539      -0.03405797404338
H        -3.79854263295766      -0.88907632787527       2.53644697081152
H        -3.89257636219611      -2.54865032419614       1.92685185040493
H        -4.21660552893019      -1.18533452338505       0.83969511996901
C         2.41834760267627      -0.78443354059077       3.47302793972243
C         1.18615145718506      -0.12283829259203       2.79708084380100
O         1.41322502741085       0.82795703691047       2.02375219393288
O         0.07505546804771      -0.62064903980217       3.08625269526565
H         3.27283215476372      -0.11086461939142       3.44427163513763
H         2.17798291040773      -1.04613264141276       4.50177716354209
H         2.66036324665398      -1.69563331937159       2.92610822037458
