29
C9H13F3N2O2 optimized with ADF in AMS.
N         1.72623246680429       0.69627328582290      -0.29903313805710
N        -0.33351328080333       0.21898214426434      -0.75898626453396
C         0.93345491742809      -0.19169914566101      -0.91459522967629
C         3.19539538816612       0.64429303457202      -0.36553574344291
C        -1.48786746890982      -0.45636723192114      -1.37286170798307
C         0.94813684009923       1.68065306037607       0.27761377818472
C        -0.35276443975134       1.38000640618851      -0.01211807655018
C         3.77058103850223      -0.35977637849890       0.61871203212869
C        -2.27825927202107      -1.25755358807009      -0.35238319977435
H         1.21412553883131      -1.03991381351292      -1.57586745406413
H         3.42327723687307       0.37870203194312      -1.41295533339231
H         3.55407257408867       1.66448907860623      -0.16618886025037
H        -2.09940410047208       0.32721252097238      -1.84539927472953
H        -1.07088154331018      -1.09057174514509      -2.17218355408554
H         1.38012551042459       2.51154925354275       0.82142535152188
H        -1.27315824409322       1.89518733521927       0.23266878421745
H         3.49446461012231      -0.11454866047924       1.65558562847568
H         4.86767707117541      -0.35839327628644       0.53942096935576
H         3.41670079458488      -1.37490216951450       0.38653392074824
H        -1.65930289883407      -2.06233156586358       0.07055346638506
H        -3.15044710004781      -1.71431643701634      -0.84251500765456
H        -2.64020190468351      -0.62225642807065       0.47019841469614
C         1.56969943757153      -0.86953086367580      -3.76430125708511
O         2.52361596928086      -0.16899390247500      -3.35966597911582
O         0.92534281455756      -1.78211542331632      -3.16891202492275
C         1.00056242093224      -0.51390329204045      -5.17260163411077
F         0.67649420026324      -1.61417970074609      -5.91067623080641
F         1.83825418409880       0.24611097284099      -5.92683936923301
F        -0.16376990347799       0.21735689314498      -5.01083075644546
