29
C9H16N2O2 optimized with ADF in AMS.
N         1.33339116562455       0.36890897911857      -0.42857869095705
N        -0.80175571700872       0.07842168069190      -0.43008136699467
C         0.37177126348023      -0.53764306169887      -0.66846448999851
C         2.77604647723751       0.07561358955777      -0.46146794824393
C        -2.10144653874429      -0.60599782661238      -0.51728293571158
C         0.76852380307106       1.56633746658514      -0.03138138343614
C        -0.58435983234936       1.38354050985047      -0.03420364469252
C         3.28583757997647      -0.26521453267854       0.92846012684495
C        -2.20064652977040      -1.73624635634102       0.49555056847239
H         0.46321016759593      -1.68494034876507      -0.92697108771851
H         2.89851746396272      -0.80474425263174      -1.10967337062464
H         3.27358654228519       0.95617718781941      -0.89679070193020
H        -2.87061634673707       0.16294139652923      -0.35693613949156
H        -2.20623388643000      -0.98820771186411      -1.54407523684751
H         1.36767964305072       2.43659496421900       0.20743428258310
H        -1.39549336583330       2.06337171867790       0.19581386680223
H         3.07111702617303       0.53427580547084       1.65348256719251
H         4.37326176550225      -0.42556818728132       0.89056215729145
H         2.82034017797043      -1.20961528630044       1.24481218758795
H        -1.45749680757664      -2.51596433639176       0.26579635551987
H        -3.20395645309346      -2.18586358163690       0.44874448970807
H        -2.03287509570912      -1.35660363992443       1.51441286064083
C         1.68077872280680      -5.14878707897972      -0.90792803948059
C         1.51364735923119      -3.63403531866680      -0.82310033177066
O         0.33609751577955      -3.19265873457156      -1.10832834807035
O         2.50261870712881      -2.92831068831524      -0.50462325816199
H         0.87409839462455      -5.65225403126138      -0.35475745238302
H         1.59245592954168      -5.45830507554603      -1.96072384500426
H         2.65990424590970      -5.45647970585291      -0.51884209912568
