23
C7H9F3N2O2 optimized with ForceField in AMS.
N         1.09691539483327       0.00798273230784       0.02586195922859
N        -1.12426615500071      -0.00460282446859      -0.03101405450290
C        -0.00934873724214      -0.76070894112284       0.00081054752924
C         0.66922627010476       1.28578228050951       0.00765558950468
C        -0.71066910213867       1.27796969510541      -0.02700687276492
C         2.48167181872584      -0.44240902089598       0.07473826247537
C        -2.50484881513861      -0.47023502921271      -0.05523933980604
H        -0.00303030564898      -1.84421331397349       0.00800735175974
H         1.31046752499639       2.15778757408296       0.02310196485016
H        -1.36176807437898       2.14262730090739      -0.04474771427487
H         2.52946401550954      -1.55186467976857       0.10563252722896
H         3.02256868892356      -0.08264224762788      -0.82560490285440
H         2.97377404029161      -0.03740304091710       0.98393035746094
H        -3.04109649568136      -0.09346737105017       0.84111026421022
H        -3.00979167080871      -0.09313839332833      -0.96931755190772
H        -2.54197279710629      -1.58056122134325      -0.05587953202585
C         1.62763966765114      -4.15452843218544      -2.41265068886406
O         2.02738772806515      -4.54514599042399      -1.32735601693552
O         0.67594880945425      -4.70860708942898      -2.93886280138209
C         2.29506369405368      -2.99986162492356      -3.10044873247798
F         2.72648321503041      -3.39379578682824      -4.35365150568298
F         3.38450369619164      -2.55972124368753      -2.36938312619022
F         1.39381690841321      -1.96029176392647      -3.23592483067836
