46
C14H29NO2 optimized with ForceField in AMS.
N        -1.62691287170958      -0.29747985612630      -0.17896089058528
C        -1.90529820484188       1.12083797787881       0.20480593959387
C        -2.64183054191746      -1.21033361688487       0.43910302798215
C        -0.28999715192738      -0.71767992227582       0.36021376836365
C        -3.34895570371045       1.56509557458363      -0.08893831686730
C        -4.10558673753938      -0.80299911378442       0.18223931400638
C        -4.34845396780149       0.64306532278168       0.59959299455027
C        -1.63661546194982      -0.45777257180004      -1.65892929639427
C         0.93304549507337       0.05684777159198      -0.19180976369927
C         2.23294781968125      -0.46213814658942       0.43855659254015
C         3.45550268069565       0.26621509697276      -0.13362756215472
C         4.75229588585119      -0.26571971569026       0.48717134809703
C         5.97126318237400       0.44857155123524      -0.08927059640652
H        -1.23431787611740       1.81967229722206      -0.33945553208532
H        -1.71700908489125       1.26988125748135       1.29297383957380
H        -2.50738250996951      -1.24357934936159       1.54563543301645
H        -2.50261959453926      -2.25341671002964       0.07322578705297
H        -0.27930062826968      -0.61387655698552       1.47025103013924
H        -0.12377437170295      -1.80025046444390       0.14992146347037
H        -3.49364160387967       2.60088364896904       0.28740053650127
H        -3.53813822529197       1.58442394778505      -1.18339376617742
H        -4.38417754233319      -0.94779491093659      -0.88207517301892
H        -4.77216220383380      -1.46435171613166       0.77722537236185
H        -4.24485427206237       0.73665000094762       1.70336345781865
H        -5.38291916321941       0.94179511110220       0.32419414133206
H        -1.00924392517571       0.31197969491440      -2.15662302317837
H        -1.26371766018975      -1.46332404021866      -1.95573630256663
H        -2.64948385609128      -0.34331389878069      -2.09021123855027
H         1.00961063822976      -0.07544417035935      -1.29074745633145
H         0.84568407880925       1.13837471844616       0.03907748863321
H         2.19540720200206      -0.30750078441724       1.53971167337424
H         2.33055563210477      -1.55217256931426       0.23791369698752
H         3.36677667624891       1.35535950621143       0.07556127966267
H         3.48957743872442       0.11963679655075      -1.23609572152326
H         4.84558777686002      -1.35543471067400       0.28577331624915
H         4.73108787375617      -0.11189028568708       1.58822705589356
H         6.03568462989087       0.27664136573647      -1.18494663444809
H         5.90777252238343       1.53999257894156       0.10790617278262
H         6.89340612416874       0.05462705329329       0.38680011640020
C        10.20084298241510      -0.27669343914137       1.34068160052367
C         9.75158137722062      -1.61756824594165       0.85208772457562
O         8.72291093769040      -2.11067995759307       1.28516940964731
O        10.41054274397407      -2.22265773831810       0.02165496176344
H         9.42743788475303       0.48441211253488       1.10589826231174
H        10.35562589768736      -0.31335819317161       2.43955449979638
H        11.15483737897018       0.01927051597678       0.85373392778558
