41
C11H22F3NO3S optimized with DFTB in AMS.
N        -0.48230491085426       0.27997482880963       0.55071527994525
C        -1.39488781503386       1.43915633953211       0.26371875177784
C        -0.76203317460677      -0.83849368064664      -0.40150250788787
C         0.92510812262942       0.78621722411261       0.33295826805243
C        -2.86826163724598       1.05668888584950       0.26313153865145
C        -2.22520749939184      -1.26734723617583      -0.39085726461755
C        -3.13897670154507      -0.08618236946778      -0.71360979211266
C        -0.65187780743857      -0.16153866087776       1.96303779328066
C         2.03199701660564      -0.20651945543056       0.67140414055393
C         3.38515738052262       0.50454047485041       0.53661670449877
C         4.53799193041116      -0.45370208266540       0.82417419325983
H        -1.11140070649763       1.83085088611278      -0.71678712733096
H        -1.18937199530769       2.19526061871842       1.02524883128878
H        -0.11843097349356      -1.67646622591647      -0.12697436046746
H        -0.48263232635419      -0.48896974009671      -1.39959282667324
H         1.02807903249046       1.67546321009381       0.95646969954775
H         0.99153511369669       1.08194879116028      -0.71774756360583
H        -3.43422371897279       1.94272076937572      -0.03529811544294
H        -3.19705248416750       0.77876145313462       1.26763306591653
H        -2.48999199398650      -1.69542726581608       0.57952481209775
H        -2.34549827128942      -2.05003520366120      -1.14449354308124
H        -4.18355633073160      -0.39766295390414      -0.64157262453152
H        -2.95312201476782       0.25141598846570      -1.73845114729869
H        -1.70003994540169      -0.36632972435188       2.16104532355022
H        -0.06989172040586      -1.06427856022594       2.12880008444190
H        -0.30039476064286       0.63237532379300       2.61673106366977
H         1.99671731740353      -1.07447292370530       0.00519759650629
H         1.93024752888224      -0.55066243672524       1.70221758849885
H         3.41546213291876       1.33384135536690       1.24898798675857
H         3.48841531273633       0.91478777835900      -0.47374316867497
H         4.53267449575069      -1.28765336852820       0.12013965540548
H         4.45799714325286      -0.85101626819701       1.83634953187180
H         5.48718540985063       0.07373275910308       0.73215947333659
S         1.14430831833832       2.69287048459366       3.41464709732368
O         1.74199859044641       1.37774988540274       3.20493687264573
O         0.10142236669970       2.99760918264925       2.43244535268386
O         2.06641457556883       3.76072553663803       3.68460388631715
C         0.15965914178389       2.44913593206643       4.96611700443389
F         0.91894857008370       2.09248996089843       5.99175996664692
F        -0.72723098125209       1.46260834381834       4.74926702198863
F        -0.52071528168428       3.53679461618766       5.30007200797466
