35
C9H18F3NO3S optimized with DFTB in AMS.
N         1.04322622545446      -0.08177622190971       0.03634977268004
C         0.31144470209468       0.22033328154951      -1.24237148245721
C         0.84960094759115      -1.52447092749493       0.40541477332823
C        -1.16653462688487      -0.14132370019761      -1.18183641168309
C        -0.61849999131966      -1.92709365859807       0.47306467935954
C         2.50247592219878       0.20354255876356      -0.22977154198418
C        -1.33805535223324      -1.61910010177259      -0.83717696592879
C         0.56950506389453       0.80938323643188       1.12710233651099
C         3.45801126871571      -0.29118197416054       0.84289299902251
H         0.79431239822121      -0.36910169635982      -2.02611608498333
H         0.45023570417209       1.28367289021216      -1.45139207309057
H         1.32778894214235      -1.68170591100336       1.37403889729016
H         1.36765648334699      -2.11465623984275      -0.35225713842353
H        -1.58777442608374       0.06007636072361      -2.17006144613605
H        -1.69704031098189       0.48690195088814      -0.45916784547509
H        -1.12013446400600      -1.42960345752716       1.30966635812656
H        -0.64451598933015      -3.00323515956248       0.66355416509971
H         2.75525766650999      -0.28569958308443      -1.17108262680702
H         2.58602633952133       1.28610625012023      -0.35691491680667
H        -2.40017046211474      -1.85736469429219      -0.74223614056665
H        -0.91443878825771      -2.23074777882969      -1.63795305849690
H        -0.48589101175517       0.63357037949429       1.31643310787648
H         1.13767730044898       0.59985886066150       2.03070820496343
H         0.71953748612425       1.84504991583140       0.82696628402921
H         4.44173188812065       0.11883727779869       0.61504464083656
H         3.17459826867092       0.03079496501734       1.84422542000247
H         3.53443397163083      -1.37663661438549       0.81670151246294
S         2.54013835797711      -2.77651455358013      -2.64954770824045
O         2.82913367174501      -4.06592758448921      -3.20902108430752
O         3.24250373286020      -2.44738130488532      -1.41243713344385
O         1.12715256126205      -2.40425039027237      -2.60895305448712
C         3.22596892179396      -1.53097388002509      -3.84249540511197
F         2.72438765044508      -1.66601401225034      -5.06040007021810
F         4.54835133345192      -1.57767778551974      -3.91887396985668
F         2.89028394627297      -0.30086185664930      -3.39885888878409
