44
C12H24F3NO3S optimized with ForceField in AMS.
N         2.00699882569642       0.44921104075924       0.10656475567012
C         2.25793600579790      -0.85265322892282       0.78467203226563
C         3.11949272719995       0.60789783122252      -0.87918929474826
C         0.70120772409641       0.45007569433149      -0.62266563669162
C         3.68630383505881      -1.26006863718978       0.48318232573230
C         3.93457163320050      -0.67390762157555      -0.87951834198650
C         2.06025055167637       1.56102362436070       1.09078789705448
C        -0.54495752542900       0.22958326325738       0.26688675308759
C        -1.80459152951895       0.10158417790763      -0.60117972629697
C        -3.05628933957848      -0.09226575749333       0.26069256275516
C        -4.31507256247702      -0.19843509572601      -0.60669657715390
C        -5.55932892488941      -0.39008441071362       0.25493466607985
H         1.60017770343069      -1.65794519246945       0.38444940547032
H         2.09381973786332      -0.81052810758355       1.88583232844567
H         3.80523100856386       1.44733406016746      -0.61622281772432
H         2.76525858851918       0.81953312385533      -1.91450149422314
H         0.71480132366575      -0.34428606052592      -1.40505335189410
H         0.57148214239434       1.41938541651206      -1.15737045063136
H         3.81394868272824      -2.36452124577085       0.48526541705332
H         4.37645377622785      -0.79871295053423       1.22414680285568
H         5.01551316950131      -0.48256131436114      -1.05475808847808
H         3.54529853248721      -1.36557283442700      -1.66019786411644
H         1.31708990279582       1.42554958905102       1.90447526241909
H         3.05907024359674       1.61011244683235       1.58054607332788
H         1.86928319599301       2.53880114084522       0.59488930301869
H        -0.43558146433204      -0.69107858062446       0.87799348493361
H        -0.68042326650584       1.09292322435446       0.95105443160589
H        -1.69431092337920      -0.76874645254300      -1.28550212242621
H        -1.92134549194780       1.02143868968072      -1.21576786819089
H        -3.16076211041288       0.76651741742757       0.95993351355480
H        -2.94770513455537      -1.02386179949274       0.85395617010624
H        -4.43450940225779       0.72715818519052      -1.21101143810418
H        -4.22116863066896      -1.06291609532318      -1.29989044057500
H        -5.69015969452556       0.47438421045266       0.94039726969933
H        -6.45495318062052      -0.46573881212399      -0.39687834122520
H        -5.47482005904812      -1.32258947666160       0.85315701984485
S        -1.36764699397457      -3.92685405982737       4.74516673531577
O        -1.14805088711059      -4.13125308704848       6.25134288012059
O        -2.13870269309778      -5.18870485886313       4.33016957790458
O         0.02968238260732      -4.16272291371670       4.15289454762618
C        -2.14914278297127      -2.35586730652810       4.27934078381880
F        -1.35768702262969      -1.30185695619526       4.69283829615651
F        -3.39130119413831      -2.25949115023637       4.87616227905066
F        -2.29511044753185      -2.30832030313074       2.90836351419259
