31
C9H14F6NP optimized with ADF in AMS.
N         0.88773782988122       0.49626682569556       0.31337782207891
C        -1.45743683842362      -0.15600467230796      -0.14121982817301
C        -0.47302563884437       0.36768518701900       0.89962852899516
C        -2.90406241068729       0.05470780995029       0.30323481420328
C        -3.88050056754003      -0.32104894757012      -0.80782598892898
C         1.37209787091809       1.71598035638658       0.00893478683493
C         1.56623713332280      -0.62939974552519      -0.01381781920189
C         2.59740609715981       1.84254595715035      -0.62756768429960
C         2.78594785102889      -0.55115691711436      -0.64920253921468
C         3.31405352531850       0.70477568879667      -0.96212596749423
H        -1.26942105954626      -1.22747040443918      -0.33876358088890
H        -1.28474031848932       0.39763961233022      -1.07695151213466
H        -0.38817774869135      -0.28586448881568       1.78188214760184
H        -0.76657738859797       1.37418734725611       1.22109112691826
H        -3.11443725562559      -0.52737605305919       1.22012945739123
H        -3.03435866545370       1.12179929253154       0.55080853790128
H        -4.92199177517327      -0.17281998878369      -0.48605985480574
H        -3.70112160608065       0.31234936302008      -1.69006579821025
H        -3.76169349522601      -1.37516117303386      -1.10629291973274
H         0.73944371632372       2.56940789298407       0.24432013016388
H         1.08683730634387      -1.57053611729634       0.24746196624553
H         2.93798184386695       2.84374113948295      -0.88786367826941
H         3.31263180031037      -1.46961747055136      -0.90634071528807
H         4.27410662718779       0.78456276771253      -1.47528214038968
P        -0.90404402529297       3.33576394194965      -2.09964896274115
F        -2.25765642207132       2.51491399157002      -2.54927100510768
F        -1.73789319735799       4.72874130347667      -1.94915733201619
F        -1.24935223637775       2.96316881556557      -0.48402955287877
F         0.49339600151245       4.08063952017483      -1.56870257733676
F        -0.03442990747392       1.89084162989854      -2.19783354205829
F        -0.51878253012105       3.66404826614569      -3.65164867506363
