29
C9H17ClN2 optimized with ForceField in AMS.
N        -0.03231711976303      -1.32194489249370       0.33287930717581
N        -2.05148938055405      -0.39395766974889       0.24007088535395
C         1.32146014186906      -1.64128313302808       0.78470145477388
C         2.37079973460737      -0.86752269087994      -0.02438798931330
C         2.20995349576730       0.65121214606434       0.13507801489094
C        -0.94697360993418      -0.58036301778612       0.98862325281058
C        -0.58006834242453      -1.62155757326603      -0.86255415964973
C        -1.83267332631298      -1.04560781168906      -0.92039583350599
C        -3.20747953460896       0.43237167315241       0.57876420655471
C         3.30626003940078       1.40309310515657      -0.61277253913486
C        -3.17356627844602       1.73954101092085      -0.20661227066981
H         1.43395013519195      -1.39352509393057       1.86317335158050
H         1.49826255533486      -2.73272212883091       0.67199151740907
H         2.29028364111676      -1.14342489925285      -1.09857217744783
H         3.37993444875812      -1.16862543367100       0.33207935804548
H         1.22502110488630       0.97190647735503      -0.26805900758420
H         2.25532432765772       0.92327509062410       1.21218696764502
H        -0.79118977616028      -0.14277885591864       1.96792066295997
H        -0.09262127424264      -2.18617199282814      -1.64662705658555
H        -4.14352631189788      -0.12178532410815       0.35092429031788
H        -3.20153328666346       0.66759221614499       1.66541846508987
H        -2.51919244246489      -1.07566452543844      -1.75734442409871
H         3.27282764097340       1.15518295443348      -1.69522182945410
H         4.30428683885145       1.13635958607248      -0.20426713379444
H         3.15343213454422       2.49677330963171      -0.49396025910924
H        -2.24475592602528       2.30085379137827       0.03171453021238
H        -4.04945764288151       2.36405437932985       0.06772725518417
H        -3.20611556287624       1.53558001797551      -1.29772196389486
Cl        0.28147032949663      -5.11866454716905      -2.41720059746158
