58
C16H34F6NP optimized with DFTB in AMS.
N        -0.11270217193155       1.82787790767285      -0.09782877497411
C        -0.74933304423127       2.60832392424253      -1.21034334032224
C         0.40447839854987       2.89293618603497       0.81661082800279
C        -1.12243197485478       0.97863318837143       0.61775236829021
C         1.02031900264224       1.01587070098784      -0.66620774060434
C         0.16752135448674       3.80646711761203      -1.43112378358938
C         0.91255831334284       4.00355326532058      -0.10111906076710
C        -1.74042430352671      -0.10831168080307      -0.25765310461408
C         1.72333813029348       0.09069407511636       0.32022505880217
C        -2.76688673317181      -0.91117002540436       0.54662558877637
C         2.86674627970925      -0.61678871392079      -0.41977207584412
C        -3.36029371046972      -2.02537462839196      -0.32171130259594
C         3.57523295119248      -1.62216925709174       0.49078617369806
C        -4.38007288685084      -2.85806698683644       0.46019034618555
C         4.70339150858079      -2.33738634089511      -0.25919938014592
C        -4.96442253076883      -3.97210139461509      -0.40669734834803
C         5.39653352325527      -3.36904599943914       0.62908346816193
H        -0.84922895801235       1.97533831250286      -2.09055767441860
H        -1.73730085072654       2.92581003364065      -0.86886367606195
H        -0.43069230721758       3.24242134211856       1.42814964338629
H         1.17457666174165       2.47864806436890       1.46668656716826
H        -0.61915805683765       0.54090412213997       1.48333243201026
H        -1.90037566694480       1.65686598792684       0.98122317097907
H         0.60545970702275       0.42534846874429      -1.48017908729745
H         1.73532569740170       1.72347481692506      -1.08945003737940
H         0.86974585342482       3.61173436738921      -2.24361729022886
H        -0.42125705043513       4.68643890850715      -1.69544812492600
H         0.69966784719402       4.97913498455323       0.33942963383638
H         1.99188410881565       3.92509332511445      -0.24456570127603
H        -2.22835783803884       0.34256014937973      -1.12400689147576
H        -0.96914379220240      -0.78648922191865      -0.62417336216105
H         2.12207702826723       0.64705310765745       1.17512047557550
H         1.02866533570441      -0.66363684426105       0.69833740358077
H        -2.28224648103268      -1.34767077159461       1.42728399144089
H        -3.56528847594636      -0.24741533607465       0.89766974331340
H         3.58457386807180       0.12806892447922      -0.77888345953846
H         2.45653821651510      -1.13725368244997      -1.28929800875652
H        -3.84297052317182      -1.58190004133670      -1.19842940920353
H        -2.55319646434508      -2.67296668593212      -0.67816071373833
H         3.98506512405523      -1.10395680185483       1.36565967983568
H         2.85002225279975      -2.36075399975790       0.84982178676661
H        -5.18864639950754      -2.20838990146542       0.81368234667232
H        -3.89566104405932      -3.29666563150674       1.33970965079190
H         4.29236470148213      -2.83515191369071      -1.14322583187409
H         5.43716277124635      -1.59973348199782      -0.60162635761528
H        -5.46930107639121      -3.55261468719986      -1.27780806060437
H        -5.68619842854183      -4.55390294772877       0.16728885542564
H        -4.17461801712972      -4.64012492868214      -0.75229406514262
H         4.68516490045051      -4.12606999844078       0.96237552015437
H         6.19461125251143      -3.86318821949559       0.07460504851813
H         5.82976990907482      -2.88915087431622       1.50824459547165
P         0.11797583190982      -0.91875812178125      -3.76475480505880
F        -0.10235378439131      -0.23238402906228      -5.22257321915707
F        -1.15857909677677      -1.90782319807480      -3.98061717257508
F         1.15214156180883      -2.01941584436358      -4.36317913550121
F         0.32922250769510      -1.54868175222389      -2.22066138832489
F         1.37970209696129       0.12799811286690      -3.45550741797522
F        -0.92041298219290       0.23606882623486      -3.07841934274840
