53
C15H29F6N2P optimized with ForceField in AMS.
N         3.00915249169236       0.91719469334715      -0.06126747318123
N         2.89565796708285      -1.29545459369584       0.14569394511160
C         1.43034060375697       2.80478015134877      -0.26855151002658
C         2.80302759987964       2.33389704064642       0.23483819299854
C         1.00855739614286      -2.62859826251585       1.02627133614827
C         2.50675853303743      -2.59998754882951       0.68018767560246
C         0.28028885030171       2.10570168549142       0.47271409413326
C         0.12899427312571      -2.30594277678078      -0.19284951296733
C        -1.08457601441693       2.54891228554903      -0.06330238564122
C        -1.35888738787569      -2.29410442674748       0.17446318276580
C         2.82600919045952      -0.11269844345758       0.78801466219702
C         3.20965446278012       0.36819900423388      -1.27633617555172
C         3.14900910896623      -1.00391019543160      -1.14652028269991
C        -2.21712598061465       1.85192057473916       0.70058681114474
C        -2.20483184658938      -1.80155193288195      -1.00747432766496
C        -3.57655952068559       2.15714382158414       0.08103508920605
C        -3.68375553768810      -1.72874727632033      -0.64142623066669
H         1.35222122455484       3.90246673544703      -0.11000102252106
H         1.35166021564163       2.61022060826685      -1.36056629574370
H         0.80826221449102      -1.89510612876704       1.83763468789168
H         0.74992413563281      -3.63967087176296       1.40921882477115
H         3.60220867204785       2.93017221895998      -0.25596426377905
H         2.87911182678716       2.50996352489282       1.33050339428259
H         3.10167949937145      -2.81259403306349       1.59460346101290
H         2.72898378992106      -3.39849203685684      -0.06138342654744
H         0.34684330052269       2.33787830018713       1.55836599190118
H         0.36538510478491       1.00645341168574       0.34176363759659
H         0.30785371274399      -3.06064066825600      -0.98984714274933
H         0.40029726671084      -1.30538116508397      -0.59127383728657
H        -1.18992322921271       3.65062261348155       0.04738950880876
H        -1.15136000674641       2.29144832429246      -1.14374819531850
H        -1.51885688522447      -1.62144477748766       1.04557077540785
H        -1.67664329866678      -3.32113232410878       0.45943033601775
H         2.55604967460815      -0.00094538817359       1.83092396837817
H         3.32890799078398       0.92318590076106      -2.19757952995922
H         3.19929283422186      -1.72856280153535      -1.94859789243903
H        -2.06052209801573       0.75333194314789       0.68663502391960
H        -2.21630564371357       2.18925553427520       1.75992916975510
H        -2.07936654649971      -2.49087637384289      -1.87073371652209
H        -1.86613722990214      -0.78827999263653      -1.31717316427608
H        -3.77568523672101       3.24947495292984       0.10648242437547
H        -3.60938614552549       1.79894256702613      -0.97025921855049
H        -4.37024571695690       1.63531340402225       0.65640786511857
H        -4.25985491024548      -1.34099327052174      -1.50808819714228
H        -3.83707146309375      -1.04368350156421       0.21927785064137
H        -4.06615519680281      -2.73810322677378      -0.38033852308108
P         7.04378532126932      -0.44294097767388       0.92973441968251
F         5.77284872389619      -0.81515665633825       2.02472939369384
F         7.21791055149446       1.08112992369896       1.70362008995252
F         8.31612944043278      -1.01443302959817       1.93324398755532
F         8.25976127283661      -0.33923588298620      -0.27932457569632
F         6.57140842987085      -1.98318848310842       0.33221233832189
F         6.08144404684743       0.41525312628584      -0.20261913868066
