31
C7H9F6N3O4S2 optimized with DFTB in AMS.
N         1.34171094715995      -2.23096389403835      -0.79179946079236
N        -0.22480892904356      -1.45200130846418       0.46035172636578
C         0.03268086534501      -2.26547573359369      -0.55998252633888
C         1.93538676248077      -1.39671860374001       0.11308844458156
C         0.94669192678800      -0.90589972885047       0.90663752586964
C         2.03831030257640      -3.08560910397439      -1.74094519879667
C        -1.51515599896028      -1.35113640180316       1.12077123618950
H        -0.68975093976943      -2.86435193291861      -1.08394483645266
H         2.99937657214480      -1.24103731298089       0.13362735192253
H         0.98177932846360      -0.22966201648380       1.74246482551937
H         1.57678655231605      -4.07470567913275      -1.71295215302408
H         1.96865178862643      -2.66061308368414      -2.74274894592133
H         3.07980366095598      -3.16042773372209      -1.43573586125455
H        -1.57912320202520      -2.15303203343597       1.85927519388333
H        -1.59638260225996      -0.38167102356190       1.60849112020768
H        -2.30497070181822      -1.47161098832142       0.38136031580623
N         0.70052317976164      -5.48350020977258      -0.18472426871840
S        -0.61254981382000      -6.40023729095072      -0.36930517693074
S         0.88465878478251      -4.76973884371766       1.24106705726407
C        -1.90930898942985      -5.24339327107523      -1.07998689101472
C         1.18055737556961      -6.06937105895595       2.57042389003837
O        -0.36129568401330      -7.29102925376366      -1.46545330703108
O        -1.18240247788789      -6.91147469631617       0.84700354628797
O        -0.27323604401856      -4.01585143374640       1.69840679217282
O         2.13508216301254      -4.04107568889897       1.15965136329934
F        -2.96868892249509      -5.90843334657324      -1.49229755598967
F        -1.37748512768601      -4.59858570347833      -2.13030736357225
F        -2.30149468828881      -4.31003102664762      -0.21395203413571
F         2.14884169267296      -5.62980522563629       3.36024893385264
F         1.55863269485899      -7.20767600828881       2.02323252165895
F         0.09534796450091      -6.25493825757258       3.29026067245332
