52
C14H18F18NP optimized with DFTB in AMS.
N         1.02974673601387      -1.70346502586839       0.59730599929010
C        -0.41312860205692      -1.41899382413110       0.88947000747036
C         0.96661422327390      -2.66413903673975      -0.55260142347728
C        -1.12959457476476      -2.75282933458613       0.69733496429442
C        -0.24618010563760      -3.54803207885164      -0.27691848830858
C         1.73435818083488      -0.42623804309710       0.24137021785872
C         1.65702696010414      -2.33031198329280       1.79306723024396
C         3.19432628625164      -0.59846378098487      -0.17603763348959
C         3.78229206461920       0.76108003481321      -0.54700367707845
H        -0.76004043279660      -0.68118578215050       0.16241901387944
H        -0.50645050727816      -1.00736476488687       1.89480402123561
H         1.89145835685309      -3.23011886382101      -0.61527409768496
H         0.83442326272841      -2.07663217306435      -1.46323279970354
H        -2.12999042286836      -2.58658233439656       0.29476956599993
H        -1.23013547103678      -3.27890536229559       1.64875927724546
H         0.06284688473902      -4.49582942007309       0.16588162452539
H        -0.77046306287421      -3.76340757960074      -1.20915744130803
H         1.66124616004117       0.22458062094807       1.11780956975873
H         1.16751489032815       0.02803656040014      -0.57656769678964
H         1.63389701920415      -1.61690670234337       2.61508862019798
H         1.10081333054620      -3.22511645083972       2.05817170104284
H         2.68303487094136      -2.60214462059135       1.56539641219015
H         3.77726001385916      -1.02964525820902       0.63950895784626
H         3.26342227856636      -1.26815051909028      -1.03438535062430
H         4.81805521270231       0.63033329898410      -0.85669930819367
H         3.22621953606590       1.21099097076070      -1.37051085219831
H         3.75538766732473       1.43989531418706       0.30615370466161
P         4.45888463338364      -4.91577926910721      -0.38823465324924
F         3.05615759408180      -5.24307889012456      -1.27758362867806
F         5.07341449030435      -6.41121364035819      -0.75163610853994
F         3.82660416568064      -3.34823129943112       0.00789657455158
C         5.17315391347114      -4.10838203829113      -2.02737753710332
C         3.40719376119312      -5.60632721155600       1.12959809540983
C         6.07893401584974      -4.50563811908679       0.69105537197468
C         4.16730268237721      -3.73270650243874      -3.15115057628572
C         3.23963047958092      -7.13893430522674       1.27989242447903
C         6.18729296792193      -3.17336391820698       1.49109829357585
F         6.10223908557833      -4.88739075050807      -2.59689276406341
F         5.77078122587024      -2.94523718458145      -1.69224529011916
F         2.14055796195111      -5.11323470624172       1.01666816500303
F         3.86183166511013      -5.14054203463144       2.30543840090837
F         7.14937666404051      -4.53640832562212      -0.12279197379589
F         6.23448236038930      -5.50665983221440       1.57870784296664
F         4.76748264495120      -2.97842826702869      -4.07218644361504
F         3.14468778019697      -3.00561136798979      -2.66173893796306
F         3.66219276447392      -4.79458531000391      -3.75993983182882
F         2.74434435177214      -7.67503058289655       0.16952582422076
F         4.39153764212116      -7.72974030005323       1.56465389429959
F         2.38398799983087      -7.40382244671694       2.27496856210535
F         6.32617129915382      -2.13037212167398       0.67477871295273
F         7.24003377650022      -3.19958755178550       2.30467889726431
F         5.10470131833131      -2.93935957100377       2.24427511954526
