16
C6H8ClN optimized with DFTB in AMS.
N        -0.66421165733344      -0.13336960581286      -0.04553557931796
C        -0.01782343490658       0.76356592710885       0.82627418959360
C         0.02379138925283      -1.18474373415386      -0.59030331825870
C        -2.11622122940863      -0.20675254424289       0.06961446945732
C         1.41710371086438       0.90519006273091       0.54666601417574
C         1.37494045627377      -1.17927988731363      -0.65281883277180
C         2.08511112433370      -0.05884279540180      -0.11455978649481
H        -0.55965987592045       1.70735388146862       0.89178899314621
H        -0.57940613768065      -1.96622088455578      -1.03829838216430
H        -2.39041611143223      -0.58681355412219       1.05811664234187
H        -2.53810936897195       0.79124492376856      -0.06013054484286
H        -2.50841495361681      -0.86814485021820      -0.70159938463379
H         1.91696698992526       1.76261014963405       0.97903747349048
H         1.90866104838207      -1.98753697664775      -1.13296774442170
H         3.15407617486334       0.01376196254263      -0.27872065156894
Cl       -0.21125261532461       0.10895825451534       2.62306890666964
