34
C12H19NO2 optimized with DFTB in AMS.
N         2.07434962501339       0.01631342154585      -0.56463593197150
C        -0.31393305689603      -0.03272636712316       0.02979224717213
C        -1.73769256728149      -0.10567229611639      -0.52817995762047
C         0.72269607452467      -0.05265228145645      -1.10179103261173
C        -2.77770216255069      -0.08690685527757       0.59681231798301
C        -4.19956977249111      -0.15937186503581       0.04266489380798
C         2.66549559927242      -1.13077535701484      -0.06361202067526
C         2.59347717842054       1.23526025951795      -0.18425505006809
C         3.82796559965927      -1.10780970165611       0.59476538129436
C         3.74723435055868       1.34268566952826       0.48412809756251
C         4.60908174294787       0.15175378813243       0.78544271675142
H        -0.13274817236169      -0.88112341482964       0.69723978771591
H        -0.19013781321592       0.88493705325337       0.61362185386010
H        -1.85183547934826      -1.02326067429397      -1.11580537987434
H        -1.90991452664265       0.74324705428696      -1.19908413674703
H         0.62906069657740      -0.97297063250287      -1.68625543972162
H         0.57083685877127       0.80030648015084      -1.77054914733056
H        -2.66172849209803       0.83057277549223       1.18367807406299
H        -2.60398791733000      -0.93605077344769       1.26637921865610
H        -4.39873707549078       0.69051074721689      -0.61169473686404
H        -4.92067682329947      -0.14479641955478       0.86018782758771
H        -4.34075605667216      -1.07771875431819      -0.52900867392741
H         2.11389075682396      -2.04925344107505      -0.22951081557670
H         1.99672304888692       2.10174430624004      -0.44925750537878
H         4.24893514477019      -2.02804717627818       0.97629079990081
H         4.12617973257304       2.31609541155203       0.76733973692095
H         5.03219054177127       0.20988050669718       1.80061638551427
C         7.41935583206501      -0.18164949185728      -1.70245705772883
C         6.21834574166430      -0.67984973859137      -0.91756484521880
O         5.80459733861273       0.25970037971221      -0.08526000698133
O         5.75267439535026      -1.77991595158240      -1.05629675285038
H         7.14547403241090       0.72034787876226      -2.24688071761070
H         8.22316025771273       0.06318290360670      -1.01034218176570
H         7.74767492049155      -0.95153015438347      -2.39613855086696
