39
C9H20F2N2O4S2 optimized with ADF in AMS.
N         0.46024616706785      -0.27080113921778       0.19848109702039
C        -0.28522445838117      -1.02159280460117      -0.88431901866996
C        -0.65856223086246       0.08625752726785       1.14797710602865
C        -1.62512701221802      -0.28276651481178      -1.04294291649511
C        -1.77879170081109       0.57315295131491       0.24104220520996
C         1.49783256074721      -1.13774848489155       0.89645035670853
C         1.10025462210151       0.97777930995997      -0.42066944437907
C         2.48188130631337      -1.83686079232691      -0.02863835057888
C         1.30699649663584       2.12634404789780       0.54065120522015
C         3.21363071086087      -2.92765644928504       0.75612237880320
H        -0.42328961884363      -2.04766828629621      -0.51352096907903
H         0.33092762719497      -1.05088250009621      -1.79081512439199
H        -0.29655751743673       0.79947274294895       1.89735458556083
H        -0.93359073690138      -0.85235202058096       1.65236270161046
H        -2.44050727483312      -1.01188467434493      -1.14991925441156
H        -1.63494974958403       0.34619208366304      -1.94404284084357
H        -1.66003805883674       1.64382462086284       0.01730286712702
H        -2.75826729421193       0.44698510222154       0.72381866476995
H         0.91099216897018      -1.88206088924627       1.45957002783413
H         2.02882897888234      -0.48986229694662       1.61288773418162
H         2.06066973284411       0.63515672599438      -0.82829681343448
H         0.45192456641088       1.27200726161934      -1.25858309068300
H         1.95947196221180      -2.29924615873317      -0.88305180095519
H         3.22127130860634      -1.12602897812391      -0.42974953663625
H         0.36151481596653       2.60090821384526       0.83999381370263
H         1.88681232303951       1.82722331719106       1.42535761261817
H         1.91289521922842       2.88222837458330       0.02007925710428
H         3.71649071991034      -2.50039319174417       1.63520330655047
H         2.51611063518619      -3.71561953631947       1.08354339171723
H         3.99104104021856      -3.38660166991714       0.13029060261449
N         5.26144102091670      -0.57639956801770       1.51368468488037
S         4.78239008836876       0.92271262660176       1.67149050402562
S         6.24373843921568      -1.10256507963390       0.34839283705503
F         4.15261434513571       1.31941189739443       0.14664604442970
F         7.53905304113106      -0.09485984683582       0.41918486282025
O         3.58595986914235       0.91246485834270       2.51507162404386
O         5.79324086548706       1.93703246059729       1.87719336971030
O         5.70774030941705      -0.91062657154530      -0.98961080532291
O         6.73676427210910      -2.40196417879045       0.75204639113374
