47
C13H26F3NO3S optimized with DFTB in AMS.
N        -0.51826481359497      -0.18665190435962      -0.38841907198181
C        -0.95172665840843      -1.28943089557480      -1.31722099481211
C        -1.73291945518024       0.48515581546764       0.17671186421414
C         0.34124565918376      -0.71399284359715       0.72952273339309
C         0.23239982632669       0.81542027323826      -1.23015219860525
C        -1.90238781853978      -2.28360074088380      -0.66814464882079
C        -2.69714599274351      -0.47966268955871       0.85838319522170
C        -3.13553585118198      -1.57996746958000      -0.10604824127909
C         1.68227989099732      -1.30064896246071       0.29412037421379
C         0.78177343025339       2.03044548256737      -0.49025769976405
C         2.44186967435709      -1.80555101033366       1.52566151357451
C         1.66101733184140       2.81677171081685      -1.46539694282043
C         3.78357411095283      -2.40709248250195       1.11212284764413
H        -0.05717918976191      -1.79966936744963      -1.67284875132307
H        -1.43203061904140      -0.80953727425514      -2.17305762739593
H        -2.23615825384482       0.97997788345849      -0.65883269406862
H        -1.39533623485004       1.24462263983888       0.88479666848365
H        -0.23814705013106      -1.48061576489051       1.24793777954007
H         0.49856893069573       0.11359825883618       1.42653896199583
H        -0.45039925618889       1.13384840962745      -2.02095034316126
H         1.05642975484262       0.28074895183064      -1.69604129455090
H        -1.39731670205653      -2.84591786800802       0.12181600302621
H        -2.19982097550200      -2.99576009523239      -1.44178557023954
H        -3.56382640177313       0.10079844254885       1.18599323103443
H        -2.23724419613369      -0.91880461340655       1.74787263183201
H        -3.71486831239035      -1.14081752753812      -0.92454583038201
H        -3.77241991356810      -2.29743133051129       0.41647244007980
H         2.29058787055528      -0.55206103979393      -0.21671804090429
H         1.53194031855061      -2.13238488481051      -0.39653428555088
H        -0.02590325878110       2.67062019047496      -0.12252168228248
H         1.39019995858625       1.72361934173079       0.36410609509693
H         1.84231558791565      -2.56302053023563       2.04308595119772
H         2.60789046774089      -0.97616671301243       2.22255519674145
H         2.09879998778231       3.67618287034716      -0.95892090633825
H         2.46232914005599       2.18051304093118      -1.84203179804813
H         1.07088390398258       3.17001357996558      -2.31110327499493
H         4.39671491925714      -1.65815594857563       0.61048048201877
H         3.62953535851772      -3.24207217356461       0.42836709325169
H         4.31824400780720      -2.76689313434461       1.99104701174429
S         1.87967773872961      -1.34520712640459      -3.33295384009868
O         0.64901522423804      -0.71364389186567      -3.79190287820053
O         1.66368732855623      -2.60658368981349      -2.63747218525672
O         2.78434906737550      -0.43627997821260      -2.64147956219238
C         2.77560077097420      -1.80891119153065      -4.88065289466332
F         3.05623386058039      -0.72624132527675      -5.59633596531168
F         2.03216980472881      -2.62039629282734      -5.62324120140592
F         3.91358141178672      -2.42812831306975      -4.59376514905109
