41
C11H21F6N2P optimized with DFTB in AMS.
N        -0.97604107099081       1.47336868313673      -0.21151446115047
N        -2.25873602160301      -0.19120639957368      -0.67485454371130
C         1.33883876997758       2.13750699789508       0.31183982592489
C         1.92612501689228       0.84355826799819      -0.25729846429079
C         0.02871281192767       2.52069094643212      -0.38292838296083
C         3.27494947252936       0.50082674724441       0.37830519445316
C         3.82556066223726      -0.79974950180935      -0.21651900755929
C        -1.47782105429417       0.74595039169293      -1.20415000351751
C        -1.44646994830827       0.99061659910796       0.98183978167000
C        -2.25697210790381      -0.06017829627246       0.68663869007690
C        -2.89212353849870      -1.26177233811644      -1.44375351575756
C         5.19704417836883      -1.14278639584946       0.36109134639786
C        -3.89577273836585      -0.69173275868584      -2.43698631950351
H         2.03896423637573       2.96471105038184       0.16029971098214
H         1.16664321837974       2.03691847294748       1.38839332271187
H         2.05392056992677       0.95281419621563      -1.33671033865229
H         1.22480581242269       0.02185829564519      -0.08663327554289
H        -0.37045967294037       3.45161684661526       0.03085687046272
H         0.18701678719923       2.63724578925126      -1.45817731267670
H         3.15759919100743       0.39258644918832       1.46301166531427
H         3.98321692737033       1.31749393911287       0.19874188652634
H         3.90068492400853      -0.69635639774574      -1.30331581806740
H         3.12686739225533      -1.61649623971916      -0.00814391204129
H        -1.27701088844430       0.88266192233874      -2.25187512769715
H        -1.17424700520376       1.42579360555211       1.92713664692234
H        -2.81837750959069      -0.71785347621901       1.32696755688080
H        -2.09484123197644      -1.79585035968718      -1.96936800802981
H        -3.37743496200502      -1.93525644696337      -0.73364209879882
H         5.13832799133433      -1.26774161835346       1.44385107021785
H         5.91435446185313      -0.35008783135842       0.14241103769366
H         5.56356271783039      -2.07190480821197      -0.07585627932694
H        -4.64325499225268      -0.08500273981406      -1.92606780638916
H        -4.39294863654291      -1.51545076266081      -2.94686981392851
H        -3.38394502605884      -0.08165302424990      -3.17940651005600
P         0.52905513470378      -0.76458254689532      -3.53499419976803
F         0.83914723467365      -0.41214030129412      -5.08673536316570
F         0.39044030337931      -2.35305717333180      -3.85891422498480
F         2.11559429228445      -0.91328509618086      -3.18501190701643
F         0.15698206670799      -1.07474971729215      -1.92087999439327
F         0.60343305582660       0.87081371572200      -3.14535623893439
F        -1.11742124699277      -0.56293487319353      -3.80302102951398
