28
C6H14F6NP optimized with DFTB in AMS.
N         0.57558330264503       0.34599335891173       0.24621156047658
C        -0.33105198396279       1.46584316776482      -0.16813178061360
C        -0.23192132891172      -0.42994385803287       1.24268439522632
C        -1.73139392275236       0.86220561255111      -0.18956880465420
C        -1.67278096527637      -0.35504881741727       0.74618015652550
C         1.82998309244505       0.86166097412887       0.85275794821037
C         0.90689245047122      -0.50876693391986      -0.92108604918147
H        -0.00386025459843       1.85762730942942      -1.13176062674058
H        -0.25644185608971       2.24294854201740       0.59272716917720
H        -0.12641262557393       0.06842771587679       2.20664120677310
H         0.15882723081736      -1.44592712126020       1.30930871127397
H        -2.01814775174984       0.56461332692743      -1.20089567098443
H        -2.44993540807316       1.59826092238495       0.17192044315627
H        -2.34198372455498      -0.22402302714544       1.59753275121453
H        -1.95740940239799      -1.26815589381197       0.21824604242987
H         2.39925468466878       1.38547289169792       0.08693682137562
H         1.57297702883866       1.54502363231447       1.65904624087411
H         2.40383166591145       0.02151927137693       1.23892058910265
H        -0.01148516197277      -0.89616612972081      -1.35641298486860
H         1.44215471119508       0.08826647532150      -1.65741149833069
H         1.53495653681608      -1.33334765206900      -0.58819087895427
P        -0.39516047946794       2.73962159989146       3.57041217252770
F        -1.41824586255198       1.90363281293193       2.52157889281100
F         0.45869598572014       3.25799421621308       2.21286079074221
F        -1.35826140883268       4.04400648794248       3.46108265601812
F         0.65735996079736       3.51537899008672       4.53068514910543
F        -1.22296328723682       2.15233050511458       4.83829741427489
F         0.59384328977726       1.37754677699384       3.58501743583240
