28
C8H18ClN optimized with DFTB in AMS.
N         0.38222842710905       0.20820565373172       0.09232859091224
C        -0.58182805888898       1.27283255391638      -0.36119524958126
C        -0.09505747213904      -1.14140252316493      -0.36282698004854
C        -2.02917937543283       0.99844830297911       0.02442976940618
C        -1.53595361061379      -1.43706955455282       0.03312489136779
C         1.69735961168211       0.52513079073311      -0.56653170134221
C        -2.48176362668976      -0.36308439524510      -0.49487962736986
C         0.54411516365490       0.25190208035787       1.57196447479053
C         2.84089777544166      -0.41332610871312      -0.20944836833234
H        -0.49147230052181       1.33239628715586      -1.45090556661799
H        -0.23872494165398       2.21553744512154       0.07194816158789
H         0.57364125174331      -1.88678499981609       0.07227853229534
H         0.01153172266514      -1.16166753733829      -1.45250603487245
H        -2.63528198253586       1.79341247554379      -0.41781137039029
H        -2.15739076648515       1.03241996920337       1.10968091273185
H        -1.63244435717623      -1.49679456231105       1.12108787413291
H        -1.79326318456613      -2.41117930071145      -0.39059233407560
H         1.52854053215418       0.50438095493553      -1.64660884307901
H         1.95477063725080       1.54686529505378      -0.27439865276975
H        -3.49319574173442      -0.56704327906600      -0.13780936599346
H        -2.49390549033444      -0.36394914133595      -1.59127698888020
H        -0.43237684809342       0.14440637549059       2.06421527167498
H         1.18679300628743      -0.56776484330565       1.88409510335660
H         0.99393072649798       1.20509450321903       1.84405939291536
H         3.71840157615602      -0.09028466826959      -0.76940870382915
H         3.08038751902973      -0.37223606924730       0.85118689962132
H         2.62091174497428      -1.44286864455117      -0.48550381222978
Cl       -2.20083318198073      -0.25873902581316       3.07912942721888
