35
C9H18F3NO3S optimized with ForceField in AMS.
N        -0.00562323107175       0.05310457333583       0.03547643541884
C         0.92356280349615      -0.77774321495757      -0.78976324982087
C         0.88484707383572       0.90882992095512       0.87877374590300
C         2.32688255965565      -0.22491295241992      -0.62890777693808
C         2.30710939588579       0.40024553041387       0.73674763768171
C        -0.83795711155135      -0.82504038792704       0.92029115580278
C        -0.84408374837628       0.90765116134243      -0.86605504472185
C        -1.82228783113443      -1.73945480496065       0.16821878663696
C        -1.87076581273298       1.79199819847709      -0.13519511823877
H         0.64975651025664      -0.80369808425028      -1.86912215635270
H         0.95390355881341      -1.83772751582486      -0.44852532437165
H         0.59451801836862       0.92083447735250       1.95411394303432
H         0.88775039012373       1.97151684294097       0.54334394574088
H         2.51716268170844       0.55370712333149      -1.40039831239573
H         3.09976729822303      -1.02080460328571      -0.70296052895976
H         2.51123296746328      -0.37301292168297       1.51026995974787
H         3.05270445289477       1.22093949047154       0.82189552961453
H        -0.17632169444945      -1.47199900728258       1.54125333188089
H        -1.42152209757054      -0.21558347678670       1.64510077251169
H        -0.18852272260367       1.57398663692115      -1.47292927851804
H        -1.39453202419125       0.28219898486490      -1.60319128413879
H        -2.26250790330159      -2.46563839970110       0.88339825999019
H        -2.65762675653986      -1.15441370986500      -0.26700798386678
H        -1.31999126287541      -2.31128122619652      -0.63804029636743
H        -2.31654681627238       2.50564937239080      -0.85947274263554
H        -2.69784820422682       1.18223159616907       0.28148416980761
H        -1.40300049638413       2.37713552794870       0.68214079563090
S         3.21027476386848      -3.92495452831001      -2.39115311935752
O         2.32758901776347      -2.84154391619336      -3.02849389871635
O         2.61729852776561      -5.22860718907083      -2.94631551409088
O         2.75525378115882      -3.93154481991086      -0.92406565624834
C         4.99557485098505      -3.71759500304501      -2.64742308794922
F         5.40473072345636      -2.51803157265096      -2.09667323019141
F         5.27046218359357      -3.71942344657298      -4.00172461561233
F         5.67285204606529      -4.75759004562054      -2.03959089851015
