49
C15H31NO2 optimized with ForceField in AMS.
N        -1.54308662375818       0.10880251826628      -0.08066610753090
C        -2.56119665748094       0.51499931178879      -1.10418311908852
C        -1.78819831418676      -1.32027639905858       0.30216769316003
C        -0.20064166288430       0.20324581022128      -0.75254364332400
C        -1.60961467384084       0.97664150334536       1.14684583725358
C        -4.01912669695713       0.29757358366357      -0.66386324695217
C        -3.23128042054490      -1.60797965778847       0.76440780635540
C        -4.24778954972205      -1.16125182345689      -0.28222652046896
C         1.02526765029425      -0.12309728923509       0.13715339049782
C        -1.25963572587535       2.46142410424135       0.93658818763666
C         2.32709906454514       0.03798704024777      -0.65926795116894
C         3.55087875582366      -0.29976660946183       0.20094203500173
C         4.84692623903671      -0.10680342805923      -0.59441329347262
C         6.06868549654630      -0.46244808934017       0.24728023682110
H        -2.41870131500775      -0.07597517261662      -2.03960862949736
H        -2.43339273531668       1.57491245280111      -1.40761173791349
H        -1.11556984618436      -1.63128270909923       1.13039625497192
H        -1.57284137112630      -1.99621450327334      -0.55748263839498
H        -0.05752243984741       1.21705102699675      -1.18891720267302
H        -0.16576132186418      -0.48899342666822      -1.62602767262293
H        -2.61833068342720       0.95410791163726       1.60188025166393
H        -0.94393679468552       0.57857417877245       1.94292380626425
H        -4.69182047975771       0.55514087387174      -1.51040815891450
H        -4.29347249456410       0.96867477948976       0.17594141205384
H        -3.44244659596029      -1.11561285654172       1.73666328899932
H        -3.34441592514269      -2.70143961655823       0.92938655415014
H        -5.27633361550851      -1.28490350289349       0.12013630517744
H        -4.15408918144363      -1.80011191397253      -1.18797243147991
H         1.07354621329506       0.56078945421882       1.00852494467556
H         0.96903958372780      -1.16914415690360       0.50253939545461
H        -0.21925363699326       2.59790847102459       0.58111970221770
H        -1.96745725806259       2.95661722116814       0.24314325841677
H        -1.33942519960879       2.98661650944825       1.91178800720382
H         2.41002956326221       1.08813731952756      -1.01764500429710
H         2.30495445301603      -0.63668272097286      -1.54369668952274
H         3.48066698688150      -1.35657344783148       0.54178713125793
H         3.56788705217398       0.36054557373892       1.09638149006988
H         4.83220293907712      -0.75382350851639      -1.49870858305176
H         4.93062841404043       0.95292059096187      -0.92108613288474
H         6.02409876596268      -1.52758799032313       0.55980099006851
H         6.99072149654056      -0.30620722849913      -0.35152019509608
H         6.11681682715338       0.18374559770153       1.14965062023485
C        -4.53446018636706      -5.75714681210011      -3.36868695045322
C        -4.88840664453601      -5.45781206702535      -1.94600699347568
O        -4.25606726106763      -4.61973152635746      -1.32445411375988
O        -5.80712449313841      -6.05003896879362      -1.40265619736099
H        -4.65008278944519      -4.83942404314759      -3.98290205820070
H        -3.48132522893801      -6.10437296672619      -3.42525456832104
H        -5.19602196843308      -6.54984149431257      -3.77963373088053
