32
C10H18N2O2 optimized with ForceField in AMS.
H         0.49988643197299      -0.44875574716264      -4.92679047721626
H        -1.15589702688199      -0.67454745476624      -4.24043121186923
H         0.04073684156252      -2.02517259599422      -4.16336318372937
C        -0.08110274873481      -0.92280002145044      -4.10833635799743
H         2.52712896033263       0.04717474175213      -0.40261645533569
H         2.47471421969424      -1.03986784163995      -2.84500786623679
H        -1.36415055851286       0.44379637141500      -1.95903716381579
N         0.40054316149629      -0.43969688219761      -2.82037043328469
C        -0.31373025577232       0.19599078215568      -1.87155578481999
N         0.44424793690886       0.46794528160741      -0.79138671699102
C         1.67586529390383      -0.00541648144107      -1.06883339365489
C         1.64894721573148      -0.56648196154087      -2.33001802587264
C         0.01348526574339       1.12819480708994       0.43832887687011
H         0.78444479580347       1.86578419316482       0.75185954550949
H        -0.93455890563025       1.68030528078369       0.25372323718200
C        -0.20989866396224       0.09380245632958       1.54458144031423
H         0.73712749838625      -0.45895350758886       1.73022480886429
H        -0.98198526031928      -0.63292940552427       1.20827876290450
C        -0.67165228969183       0.76797151089731       2.84166102322725
H         0.10877659389107       1.47730655361219       3.19331762652715
H        -1.60772599849751       1.33877001115468       2.65669218001236
C        -0.93274889824493      -0.26165771507365       3.93633372417172
H        -0.00624161373758      -0.83290162092253       4.15758195836115
H        -1.73219758154140      -0.96535603820921       3.62071135448357
H        -1.26108218289038       0.25637327303997       4.86210517103268
C         1.24743446266845      -3.62319105026484      -0.57185503954867
C         2.10975794708349      -4.58110900598530      -1.33132908281600
O         2.78767658888698      -4.18269983628261      -2.26457097372011
O         2.14020675531420      -5.76119769202890      -1.02091991276794
H         1.88237873525193      -2.84111761266566      -0.10555441272229
H         0.52312663048309      -3.14346639178658      -1.26316168077470
H         0.68382375240225      -4.15035659757697       0.22716890671301
