37
C9H20F6NP optimized with ADF in AMS.
N         0.77805431662089       0.07195619713857       0.41616807669213
C         0.54487796997597       1.03712030708585      -0.73905527789263
C        -0.05906105996772      -1.17041256229102       0.19525391112256
C        -0.92041361615916       1.36433571525011      -0.95102060366617
C        -1.53715161597238      -0.87895146010138      -0.02431561464963
C         0.40398300208160       0.69885232144441       1.75069997319407
C         2.25661031379845      -0.30078617223847       0.38302960214007
C        -1.74808371463049       0.10069337926271      -1.17827124685294
C         1.22409773432932       1.90985522804518       2.14307767406469
C         2.70446334369861      -1.25075724142585       1.47361720799416
H         0.96416800494992       0.53474631087929      -1.62430741871667
H         1.16213629003607       1.92672374649642      -0.56006768175067
H         0.09510508090284      -1.82612753013263       1.06296003491758
H         0.36903409637486      -1.65883358309134      -0.69486539097128
H        -0.96834740634832       2.03122247574439      -1.82687764803112
H        -1.31954118068003       1.94675843534780      -0.10297596437634
H        -1.99596930453183      -0.49152788607491       0.90083275751105
H        -2.02859922243376      -1.84417620190992      -0.23170899511736
H        -0.65898086494330       0.95817435448475       1.67823407311358
H         0.49744177204531      -0.10919465603294       2.49146660047773
H         2.41970974973608      -0.73450467760734      -0.61477645731674
H         2.81919530931643       0.64204939002764       0.41245036600679
H        -2.81713483215343       0.34346896686059      -1.28401660530270
H        -1.42866738143421      -0.37659804885803      -2.12287637309654
H         0.83456029199654       2.27397607332183       3.10629373180494
H         2.29058360960272       1.68417187664080       2.26825222091432
H         1.15258499604445       2.72849514657536       1.41457468108621
H         3.78088633203380      -1.42190713477463       1.32282124680042
H         2.58785378963275      -0.82484475306421       2.48035333980343
H         2.20792043737499      -2.23138271060280       1.43259679944728
P         3.93880319269038       3.17678533264874      -0.86604083983238
F         5.46492083111374       2.71138362064840      -1.23281689820306
F         4.01985551455043       2.29691430642129       0.57192427590252
F         4.47486736905048       4.50474646330911      -0.07652259151168
F         2.35008945237451       3.58826966602534      -0.46294475846599
F         3.78961061715785       4.00370511456773      -2.27057665961331
F         3.34042415406564       1.79884791137917      -1.61502460882633
