37
C11H18F6NP optimized with ForceField in AMS.
N         2.36734757342286       0.03900808133200      -0.52840074065491
C        -1.44790233530245       0.05343525017890      -0.69457278245629
C        -0.04618568396287       0.02319032983955      -0.07643958494354
C        -2.52445808228767      -0.01254473685826       0.39474283533054
C         1.04040433715819       0.08450408379949      -1.15382719940263
C        -3.92925403763020       0.00590029256719      -0.21687932305487
C        -5.00123917603847      -0.06316455284141       0.86691842465089
C         2.96303075390767      -1.16907860740864      -0.28904947497215
C         2.98037387354026       1.20215996899959      -0.14981995154698
C         4.20644497928889      -1.23252787281252       0.34324468157985
C         4.22297658480119       1.17358918934389       0.48800565371963
C         4.83681093451314      -0.05317126591790       0.73635244346943
H        -1.56574313242283      -0.81267347771702      -1.38266706879308
H        -1.57258707290339       0.99076561257857      -1.28053915152781
H         0.07458967811933       0.88936766417223       0.61078234989770
H         0.07845308842092      -0.91231193041279       0.51218379405391
H        -2.39322698439758      -0.94605436236789       0.98564302734202
H        -2.40935141746555       0.85733652725403       1.07876620400039
H         0.92806238556586       1.01746363363207      -1.75051747300643
H         0.91998619984438      -0.76684644655901      -1.86087921026913
H        -4.07045365866878       0.93929427233326      -0.80429566774930
H        -4.05217888644979      -0.86249509746296      -0.90028228589649
H        -4.91647943105654       0.80922682907275       1.54963359069743
H        -6.00696374794801      -0.05013906238621       0.39676198618667
H        -4.89584720422794      -1.00003091520688       1.45479215353180
H         2.47304822013463      -2.09151089708537      -0.57834423511590
H         2.50442243150403       2.15884559867318      -0.33021416384137
H         4.67419894009145      -2.18870320982102       0.53013585459357
H         4.70239398866253       2.09516074548823       0.79193338093584
H         5.79670527694553      -0.09023738834310       1.23493719044179
P         4.30366556854741      -5.41067630304968       2.67039021844589
F         5.58614572883529      -6.55337231673698       2.68672774587664
F         3.63785207804876      -6.14335437021538       1.26635466207442
F         3.39295767705110      -6.47079634093898       3.66948804220886
F         3.03082588774340      -4.25688340625666       2.63485560450057
F         4.93600013822116      -4.63548908501281       4.06701354305275
F         5.28915084859408      -4.41105118025347       1.68215049534030
