43
C11H17F6N3O4S2 optimized with ForceField in AMS.
N         0.98805069563615       0.32100345365999       0.42837366692339
N        -1.04246992346493       0.34233467001716      -0.47818621972567
C         2.23009106973672      -0.16393836712469       1.02686164185734
C        -2.30589030813076      -0.11658646708430      -1.05251236081889
C        -0.03167393814840      -0.42877336548266      -0.03270256127168
C         3.42135154920982       0.06689651927805       0.09092141146014
C        -3.46608069077186       0.09538037348850      -0.07366706328891
C         0.61093692326891       1.60597448920529       0.26931052543692
C        -0.65064605464218       1.61918340254829      -0.29172071714421
C         3.29592424302181      -0.74009567172037      -1.20039888541115
C        -3.29796162275674      -0.73318741629788       1.19900502644126
H         2.14565529817713      -1.24852510521474       1.25950734845717
H         2.40436643541416       0.36796784000459       1.98624902122266
H        -2.23655318015599      -1.19493859089194      -1.31714118910585
H        -2.50727047688382       0.44349581475293      -1.99123855692778
H        -0.04097571307781      -1.51161128079950      -0.03744537771828
H         3.50786028153034       1.14738224349806      -0.15410803047459
H         4.35152220802727      -0.24098038466484       0.61545509323479
H        -3.54520830723734       1.17131581730413       0.19297875433417
H        -4.41266706965487      -0.20481875350110      -0.57264315440329
H         1.20319687545450       2.46798422796296       0.54737033727131
H        -1.23736228145737       2.49353304663201      -0.54137314608497
H         2.43357362233248      -0.37998679945945      -1.80028411731341
H         3.15830251792749      -1.81858649157677      -0.97218054623619
H         4.21928208405178      -0.62031839645359      -1.80494912839407
H        -2.42303773928340      -0.37493882075549       1.78156543705548
H        -3.15665347111412      -1.80610701984043       0.94804118592837
H        -4.20531077728938      -0.63254387634995       1.83057899175961
N         4.19346892025408       1.59424393174342       6.23270515257621
S         3.23317619190397       1.58852118623532       7.56083747801807
S         3.68141093467552       2.12487835601023       4.76859749106489
C         2.36167850344659       0.03749766411446       7.65311096926782
C         4.15415633935205       3.82925834520940       4.56415730815423
O         4.08957774412133       1.73588151898564       8.78633290797955
O         2.24062097701336       2.71664705052445       7.50091598612487
O         2.18730471561096       2.00266738800944       4.64898734087485
O         4.34238238843547       1.31058564548750       3.69328823442392
F         1.61428205207653      -0.00367179535925       8.81463335670268
F         3.27100033843165      -1.00283500166084       7.65744051272693
F         1.52107491976461      -0.09492675831108       6.56479165669171
F         3.66560652045571       4.30247606529035       3.36122302990212
F         5.53235299192401       3.92875497125400       4.56935875994226
F         3.63711798591460       4.58653850543270       5.59772235618625
