59
C17H36BF4N optimized with ForceField in AMS.
N        -0.52272071539552       1.78349606257262      -0.19929344560930
C        -1.38049519507398       2.32250931698163      -1.30544937425590
C        -0.21234798235655       2.90271356266302       0.75034389107981
C        -1.20234378222509       0.66709974510735       0.54833623588966
C         0.75941215842295       1.32353632762144      -0.83858816861108
C        -2.67088857622275       3.00635840007944      -0.82460193680283
C        -1.46072956123255       3.63413473627702       1.28727494439569
C        -2.34859496991387       4.13305376856315       0.15107345686258
C        -1.51070039377660      -0.60627328787761      -0.27529798020790
C         1.77570400373380       0.62768843862920       0.10132187635080
C        -2.20394933649982      -1.65639889421006       0.60276302412507
C         3.05224640536657       0.25800684249098      -0.66684086903220
C        -2.48734050160186      -2.93905941794268      -0.18571978287143
C         4.05700799660006      -0.46736326662466       0.23547100187995
C        -3.19208232156740      -3.97611780804567       0.69492580796246
C         5.33164138150035      -0.81687137398274      -0.54068079770742
C        -3.45850181671130      -5.26199152496787      -0.07936257347795
C         6.33615662532777      -1.54215047916920       0.34782248678293
H        -0.81335757044846       3.08316936972334      -1.89201591671004
H        -1.64603751435457       1.53418560904279      -2.03986116064591
H         0.34952097770664       2.53204691598783       1.63446638724082
H         0.43401707230372       3.66561873236044       0.25784117529492
H        -0.59465091825084       0.37376042778487       1.43284434396425
H        -2.16311786251987       1.00610626826926       0.98095052971378
H         0.54398040230905       0.63243936997593      -1.68445974608211
H         1.28055932074931       2.19086536285883      -1.30725486001621
H        -3.19697941221327       3.43830509096918      -1.70373160318877
H        -3.36801848215360       2.27669949253210      -0.36354105055227
H        -2.04422232884548       2.98043735915439       1.96850682802172
H        -1.13360032253840       4.50767483837036       1.89203349553459
H        -3.29417689229844       4.53603341210736       0.57062215238055
H        -1.83229882269491       4.95721825558121      -0.38897455153027
H        -2.18883307431925      -0.36912624692495      -1.11938584100869
H        -0.57799219407277      -1.05062484696759      -0.67810086471076
H         1.34591192379961      -0.30592745606300       0.51808030997891
H         2.05654093668571       1.29752567080352       0.93892987766277
H        -3.16396445811221      -1.24153382590715       0.98278189168855
H        -1.55543200108666      -1.89858849688395       1.47362972906721
H         3.52193835691636       1.18357349237372      -1.06693698642450
H         2.78976023672062      -0.40249887801464      -1.52268182915348
H        -3.13174990552073      -2.70036051363283      -1.06061178604174
H        -1.52783422378970      -3.36186649489060      -0.55733662652865
H         4.31789738838224       0.18494762957643       1.09799753676299
H         3.59549191090597      -1.40163251410495       0.62524062935887
H        -2.55858359802426      -4.21233096513586       1.57765794599942
H        -4.16029270784891      -3.56559742043879       1.05617610178605
H         5.07821774214610      -1.46992911097476      -1.40423508925837
H         5.80116098974693       0.11325579852421      -0.92902901747274
H        -3.96772256861652      -5.99462603119304       0.58157956482826
H        -2.50194972772605      -5.70385814420972      -0.43094841482749
H        -4.11167859581011      -5.05584094628289      -0.95378949325040
H         6.62544806226043      -0.89886819207614       1.20585250038236
H         5.89906499185984      -2.48951048592551       0.72887922792129
H         7.24688747535963      -1.78159394890340      -0.24074266953875
B        -5.17688129672154       7.79475365857741       0.94599782485577
F        -4.64378947566661       8.78790232688483       1.80992023260636
F        -4.67082450376044       7.98761956747503      -0.36708079892253
F        -6.59349167827353       7.89383415848101       0.92713445829319
F        -4.80011775055923       6.50935084005037       1.41556051566813
