32
C10H18N2O2 optimized with ForceField in AMS.
H         0.62368212757806      -0.54713409730291      -4.92523483107883
H        -1.07178417200135      -0.70496152402271      -4.31865201800478
H         0.06496595802835      -2.10349277292398      -4.18800626690546
C        -0.01521238975672      -0.99727236773558      -4.13672270989651
H         2.45650186033356      -0.13252174976262      -0.31296226832622
H         2.46090642946464      -1.24778789017501      -2.74726999291777
H        -1.33197986549056       0.44774377656500      -2.05929482964636
N         0.42393670850556      -0.53625539907007      -2.82641068235474
C        -0.30124063488361       0.14408755340438      -1.91791543369176
N         0.41703224216575       0.38536460958211      -0.80373179892935
C         1.63419012848194      -0.15498397718098      -1.01692775492770
C         1.63760719148352      -0.72770495550621      -2.27378405845000
C        -0.03551137353953       1.08709603762651       0.39461301058324
H         0.71789847951388       1.85408032034330       0.67978108593751
H        -0.99486658108406       1.60824382865860       0.18149253594157
C        -0.24003605788371       0.09469229498672       1.54285241881206
H         0.73216885655781      -0.38484222909160       1.79090110237659
H        -0.95178968353470      -0.69506226219015       1.21521183885725
C        -0.79684281667120       0.79475207030937       2.78679956168931
H        -0.08819866094100       1.58359560550697       3.12023137775462
H        -1.76862226411149       1.27675137091602       2.54306962673302
C        -1.01277405562851      -0.19742856981964       3.92586204725406
H        -0.05641013032316      -0.69540718159371       4.19313103547342
H        -1.75588251152636      -0.96857099625033       3.62907787188105
H        -1.39586901553884       0.33942601306486       4.81924673340846
C         3.56400266112175       2.65767465685576       5.28972625857282
C         2.34189623878129       1.81242753128635       5.11010224485045
O         1.31102431865804       2.09868021932717       5.69722727161483
O         2.37112449251165       0.83657887930884       4.37761266118170
H         3.36650555616962       3.68390600675844       4.91526439191517
H         3.82903584949900       2.70828731872568       6.36644319076343
H         4.42323657786036       2.22935813859940       4.73050611282891
