49
C13H21F6N3O4S2 optimized with ForceField in AMS.
N        -1.11964635427977      -1.73238953628956       0.22100378452958
N         1.10288621207198      -1.70561182079349       0.30384596225937
C        -2.51476233428865      -1.45955639990830       0.56206700348208
C         2.46135497154465      -1.39752377945233       0.74889297315118
C        -3.01373400091508      -0.18476939929901      -0.13277919958631
C         3.04684095697586      -0.21384431401949      -0.03440090014851
C        -0.03811056245137      -1.44995996050607       0.97311459061030
C        -0.64828079384692      -2.19058675420645      -0.95626309878676
C         0.73119565660128      -2.17711181816878      -0.90381463210439
C        -2.24224652619521       1.05869886050812       0.33282196351579
C         2.19796649344510       1.05557536482917       0.11996734806213
C        -2.81311594602470       2.33258769747539      -0.28118152424266
C         2.84213228851969       2.24302536111886      -0.58792222748934
H        -3.14400173406410      -2.32121257513101       0.25068540685384
H        -2.62227849312722      -1.34865397208879       1.66362064887746
H         2.46013580007037      -1.15430162441989       1.83435801712582
H         3.10618039403007      -2.29125377245420       0.60571056506563
H        -4.09291501896950      -0.05706514199495       0.10247560704318
H        -2.91410334917216      -0.29823266602662      -1.23453705294298
H         3.12714763474480      -0.48351463300812      -1.11018906258407
H         4.07058534124973      -0.01392158819975       0.34777159218016
H        -0.08066395445449      -1.00215763334461       1.95850964476924
H        -1.26060531979433      -2.47884936475104      -1.80089873414377
H         1.41099842996903      -2.45234046666973      -1.69970581150497
H        -2.28811101358224       1.13956407793858       1.44068747340065
H        -1.17812615171404       0.97303758380955       0.03096461942541
H         1.19354875836292       0.88957427552757      -0.32208741394182
H         2.07480565882484       1.29856397645781       1.19785148173891
H        -3.86696559132501       2.47667561250907       0.03796916968774
H        -2.76682856615797       2.28101229367436      -1.38976501450994
H        -2.21685660090037       3.20598918577339       0.05828155791586
H         2.95096710747131       2.03156954607319      -1.67303303283780
H         3.84109834354297       2.45750634297279      -0.15266967067406
H         2.20006507002041       3.14066511487753      -0.46433008815448
N         7.89422714582003       0.37096702819471       0.69426605503621
S         7.49981825129084      -1.21928931947724       0.72164513536502
S         9.44307125497165       0.90207028662213       0.76507727845967
C         7.17872191673319      -1.71127733801689       2.40276427862178
C        10.00458889501961       1.27512735824975      -0.88252073394448
O         6.25764624659633      -1.43371069368341      -0.09471118239270
O         8.61679531651197      -2.05404769168723       0.15971403776356
O        10.33938063897553      -0.13906409843851       1.37627911886740
O         9.49608282549967       2.15635580286939       1.59034468509905
F         6.79783746013222      -3.03916619515026       2.42981661428264
F         6.16406306664556      -0.93209754435023       2.92624945593834
F         8.32115553815510      -1.54656962471111       3.16323900811160
F        11.32002305969786       1.69557067000928      -0.83710041266982
F         9.22043853339702       2.27768325582820      -1.42139030562798
F         9.91085427307152       0.14549928052821      -1.67349317945277
