47
C13H26F3NO3S optimized with ForceField in AMS.
N        -0.70734949030383       0.31749321891210      -0.13376482760733
C        -1.26765126996287      -0.41587583565031      -1.31585352590021
C        -1.83786351581175       0.69629996083639       0.77720784838681
C         0.28935649877835      -0.51740702371338       0.62497232990862
C        -0.08172715422191       1.57628614075615      -0.66900466726356
C        -2.12145618726850      -1.64125207891855      -0.94905242142476
C        -2.73818698542412      -0.48608563216893       1.19037272420989
C        -3.26754176152396      -1.23443170886795      -0.02883797822302
C         1.56708760993071      -0.91510173910865      -0.15451613105989
C         0.63940388236869       2.46646654157328       0.37328469876117
C         2.51033894589606      -1.73440505456255       0.73608393052489
C         1.17636420240406       3.73812803312729      -0.27898086090906
C         3.77259268400056      -2.14030682314064      -0.02007186623699
H        -0.46859863609864      -0.73235190928191      -2.01754576470993
H        -1.92196286260540       0.26373733768066      -1.91107101095153
H        -2.49136356480011       1.45790443317118       0.29223592983745
H        -1.45794790967682       1.15267597964264       1.71630484151102
H        -0.17352954158379      -1.45742805249990       0.98310697787756
H         0.59678715361583       0.00753067417297       1.55603625667150
H        -0.86093830994597       2.20484198007276      -1.16017326460430
H         0.64039391955125       1.33737267254094      -1.48160585166521
H        -1.50636245626702      -2.43616533807672      -0.47929130886011
H        -2.54779895387222      -2.07412651608690      -1.87983371766038
H        -3.60143216964966      -0.09396968255062       1.77063564804231
H        -2.19521629789977      -1.18396237095251       1.86120922998546
H        -3.97747760885669      -0.58249326262048      -0.58452797664538
H        -3.81983902738651      -2.14053392552246       0.30125449118007
H         2.11638871718590      -0.01541026543102      -0.49849362476201
H         1.30510437439750      -1.53628893293164      -1.03470631677654
H        -0.05352912688793       2.77209838009096       1.18242149069384
H         1.50121083950482       1.93257419927361       0.82286157223371
H         1.99197791755526      -2.65384308467141       1.08631483562384
H         2.80220320644586      -1.13486734762714       1.62592298748476
H         1.67993902370116       4.36639779330700       0.48560185207322
H         1.91383306137067       3.48387172203727      -1.06786537170558
H         0.34640152543937       4.32406441216348      -0.72843269207869
H         4.32665662341266      -1.23893680392620      -0.35880366304018
H         3.51055650811633      -2.76314305621676      -0.90187274193547
H         4.43235256851863      -2.73252398086693       0.64850932835851
S         4.41319133816774       2.76474576755081      -3.00215398744611
O         4.27724585926156       1.90046397317775      -1.74007440826068
O         4.64734565841160       4.17354859667484      -2.43774915683839
O         2.97383421224016       2.83705293673386      -3.53177373134854
C         5.64781988362249       2.19592741415189      -4.20588663804703
F         5.32719953680324       0.91938179174388      -4.62579780358668
F         6.89770439919891       2.18625353232852      -3.61722883112497
F         5.65834137944810       3.04836098187333      -5.29321775689207
