26
C8H10F3NO3S optimized with ADF in AMS.
N        -0.69304440004334       0.05892619286799       0.05136372932974
C         0.58696928248504       0.11779392467841       0.80414186398644
C        -1.34361187555868       1.20492108159633      -0.24494977920550
C        -1.25415210322570      -1.14091917796660      -0.21373500746226
C         0.36682821864788       0.10148907850191       2.30643306439452
C        -2.55481581751269       1.17590256371816      -0.90529487958077
C        -2.46527182498557      -1.22041181775909      -0.86965339769500
C        -3.12964044960016      -0.04988601440011      -1.21921184337670
H         1.18545486113536      -0.74000904797615       0.46307779563540
H         1.09810319198350       1.03355328106438       0.47204433720498
H        -0.85823707137307       2.12747999027099       0.06324630713417
H        -0.69961064153346      -2.01521700319526       0.11750907153420
H        -0.25219328381855       0.95309691188437       2.62105284149409
H         1.34820099431750       0.14446121241226       2.80177599352266
H        -0.17060635238831      -0.80550153829384       2.61575272969910
H        -3.06270692711135       2.11554535521020      -1.11755548124914
H        -2.90149828121369      -2.20060476258045      -1.05564614707143
H        -4.10745715984564      -0.09329495013870      -1.69979473018021
S        -3.38156416932330      -0.00552975684375       2.31400091309720
O        -4.60319593077451      -0.06090071517128       1.49705680261497
O        -2.61806376192446       1.26332844621364       2.21436838971025
O        -2.54691113318809      -1.23007317248604       2.28485660115073
C        -3.99772454413442       0.03584785972433       4.08495797125315
F        -4.72861504651198      -1.07363099585078       4.36952125640707
F        -4.78150106955024       1.12446709398271       4.30303283663230
F        -2.95821833365210       0.08892165433636       4.96490938492007
