46
C14H29NO2 optimized with ForceField in AMS.
N         0.98432395479487      -0.31557956674441      -0.00504247156468
C         2.06337752755282       0.06254176795833      -0.96984860704845
C         1.64213882649816      -1.23969598604428       0.96913787661622
C         0.48972143283064       0.90135603199572       0.71916276392897
C        -0.11101270890728      -1.03184358083688      -0.73731140095791
C         3.27575359140902      -0.80800876057601      -0.69806743731974
C         3.14108834261052      -1.16905022366101       0.75420824391118
C        -0.25345341923748       1.92301718400744      -0.17563601227911
C        -1.30561345155013      -1.45729119789401       0.15038180785010
C        -0.56143522163940       3.20728985828958       0.60278564640860
C        -2.29647545675648      -2.31509365429610      -0.64515269053155
C        -1.29922437490312       4.21899431268450      -0.26980684942947
C        -3.47994096703186      -2.73934590253155       0.22010300552718
H         2.39179651132463       1.11977111212545      -0.84461591925662
H         1.75779896975449      -0.04183056313378      -2.03616086476278
H         1.34466874069929      -2.30173216847015       0.80952633596430
H         1.40097782891588      -1.00585892272149       2.03128603707377
H        -0.18797175593053       0.61262896079679       1.55263076850599
H         1.34914673873390       1.41763466261462       1.20720055787998
H        -0.49997457294822      -0.40439687667692      -1.56937158505753
H         0.30466041377640      -1.94245138542610      -1.22848645422772
H         3.22901495199066      -1.72738349637241      -1.32280320666476
H         4.22722638458824      -0.26796094931991      -0.89714442264890
H         3.57674468610531      -0.36470527317658       1.38728925614995
H         3.63878138605688      -2.13709598688842       0.98181667169891
H         0.35636930473901       2.17893991425407      -1.06696438667927
H        -1.21507301442767       1.49342298525530      -0.52586786487252
H        -0.95190350908961      -2.03643648409646       1.02871953312100
H        -1.84530251014116      -0.56082655146749       0.51991890114113
H         0.38507516410092       3.66661186447955       0.96164215928007
H        -1.19252088686563       2.96646767434331       1.48579499453184
H        -2.67647277956424      -1.73665137741098      -1.51528437500706
H        -1.78569154726941      -3.22651671203215      -1.02486887639948
H        -2.25665809176195       3.78974364872485      -0.63480336638096
H        -0.67198740907900       4.50722330053938      -1.14003872266186
H        -1.52203048789067       5.12972234926544       0.32477238477343
H        -4.01595737375486      -1.84667633544206       0.60712816362478
H        -3.13033495356239      -3.35666309907935       1.07472459618186
H        -4.18719260016247      -3.34226559748125      -0.38728178777785
C         1.97883923449939       4.58990614609078       4.20577080953903
C         0.69436977448082       5.18867280802978       3.72679063734613
O         0.69846577411507       6.24053606861523       3.10774304821513
O        -0.36318331797792       4.62396934464445       3.95538818067601
H         2.84116511222125       5.23136970604756       3.92327142158601
H         1.95556276118506       4.49021274587227       5.31147217647757
H         2.11456414926826       3.58577286734538       3.75172204381909
