42
C12H16F6N2O4S2 optimized with DFTB in AMS.
N         3.02141056352143      -1.13579197559840       1.18982708129629
C         0.79147634599695      -0.27817223274583       0.62457750534963
C        -0.04298219206337       0.39718935010134      -0.46798738406736
C         2.22035877091052      -0.50835748128182       0.13130063315722
C        -1.47919680793859       0.64110808977408       0.00594267881386
C        -2.31248463932148       1.31625024002607      -1.08158247080974
C         3.29651163589681      -2.44448761414982       1.12965482713645
C         3.50705089084263      -0.36804105069955       2.17743926228269
C         4.09108474275589      -3.03774956968255       2.09053863048522
C         4.31025023995398      -0.91125135545748       3.15602928292825
C         4.61593669694626      -2.26596945589750       3.11644326077866
H         0.34420844152287      -1.23907882946252       0.89873333332457
H         0.81238673476102       0.35146545667402       1.51964076669579
H        -0.05274465175667      -0.23692520279591      -1.36044254739174
H         0.42152024493134       1.35044504435025      -0.73989356130236
H         2.23701986191503      -1.16676752531083      -0.73841014340907
H         2.70690363956701       0.43187021883591      -0.13534726277047
H        -1.46399149748866       1.27305605633053       0.90026559900356
H        -1.93907369270004      -0.31464981155478       0.27910445212664
H        -1.87889933326708       2.27962710365654      -1.35214406706550
H        -3.32865433333501       1.48023664002027      -0.72336401313018
H        -2.35454013011032       0.69107438635201      -1.97423083244223
H         2.91167255431579      -2.99254282188201       0.27914405853587
H         3.26588814825190       0.68678688689547       2.14386739427816
H         4.33455782592319      -4.08759878859171       1.99694638676628
H         4.71726660356986      -0.26496705824680       3.92285646013944
H         5.27133708224042      -2.70614996436747       3.85770581579451
N         6.82009265024099      -0.51284319072999       0.44647074024715
S         7.05848290938061       1.00932022775499      -0.01179142968318
S         5.96981664186151      -1.43736371408300      -0.54118012827271
C         5.67178089935605       1.96986799242015       0.81665611207144
C         6.94010249484536      -1.72450706670599      -2.13106302700497
O         8.22064344686846       1.49525076573576       0.67490685798256
O         6.90286823422855       1.27210615660020      -1.41725102422491
O         4.69506204701662      -0.88610405646387      -0.98463179520738
O         5.90718636792080      -2.74372092399575       0.08511790756461
F         5.90124060870974       3.26779132825097       0.78037889499850
F         5.56797665838353       1.59597313441474       2.09971581187139
F         4.48259001054495       1.73780929063400       0.25232037851078
F         6.84165342854834      -3.00794156576532      -2.44814809907487
F         8.21221822211129      -1.42410495447647      -1.95615346756207
F         6.44232350564154      -1.00584617708192      -3.11593675782079
