31
C9H19NO2 optimized with ADF in AMS.
N         0.62067122256708       0.17219374354274       0.12392839502828
C         0.31802408130997      -1.18726187099109      -0.48170395392805
C        -0.74189253438798       0.66392785195348       0.55583420996599
C        -0.97067495480041      -0.95779581159807      -1.26633029477881
C        -1.69749149263188       0.21967105554858      -0.55696708673493
C         1.54741384027185       0.06537866875044       1.31398977286844
C         1.20032966058921       1.08452903762562      -0.92091444084256
C         2.90457442845071      -0.52434257004076       0.99155016145972
H         0.15157650995070      -1.86231324123141       0.37447886847295
H         1.20469249751737      -1.51783974042657      -1.08744824098333
H        -0.69534918669300       1.74914299537339       0.72351003743094
H        -0.97122674384749       0.15725496775060       1.50593003963402
H        -1.57665426805023      -1.87439469386504      -1.28135721022792
H        -0.74101547723973      -0.70557645116097      -2.31266090051708
H        -1.90214074455319       1.04334127881873      -1.25676910046168
H        -2.66100677696356      -0.08424760049153      -0.12245527666428
H         1.63098045540762       1.08691370953370       1.72120159361453
H         1.00601192509179      -0.55353249149307       2.04838686393807
H         2.13501525520609       0.62939457254962      -1.35025671596253
H         0.45120856343146       1.21660977065972      -1.71086270679592
H         1.40621847924146       2.05212232943383      -0.44146984193050
H         3.47291406254643      -0.60223273739088       1.93133476882728
H         2.81645251143404      -1.52442580771953       0.54301623969728
H         3.46938122721062       0.08866788193717       0.27471249872443
C         4.68520586733155      -1.77467695034300      -3.28108212811157
C         3.58789396631833      -1.21695540679447      -2.36422626966351
O         3.67195888290017       0.01821884965090      -2.07957222486606
O         2.68805574530885      -2.03076085362565      -1.98332568532716
H         4.49597832928453      -1.43231005940575      -4.31118349658504
H         5.66783928254873      -1.37918677269272      -2.98452938473637
H         4.69576178184890      -2.87318554285801      -3.27243986544463
