40
C12H25NO2 optimized with DFTB in AMS.
N        -0.14896203731283      -0.36549537253955       0.06844194564776
C        -1.22575572789142      -0.81877843155125      -0.86499847835259
C        -0.92745871364963       0.22637262561456       1.19702484945531
C        -2.31307039035370       0.25558143170438      -0.78560195358916
C        -2.03708497580645       1.02052209931943       0.51952975004350
C         0.69930598157179       0.66695821501010      -0.63992320075066
C         0.69005973095163      -1.51344066290491       0.56335009845152
C         1.52507276238611       1.57601600364049       0.26554969299901
C         1.14769742685186      -2.47829537464963      -0.52788143001785
C         2.39386755189397       2.47029166408580      -0.62020069181214
C         2.05720754621902      -3.53058820861253       0.10652166623243
H        -0.81164729577479      -0.94265789624959      -1.86495413376846
H        -1.60106644280014      -1.77863531411615      -0.50364720460164
H        -1.34675287515725      -0.59872933257052       1.77808035424215
H        -0.27667464589106       0.81769807784214       1.83738425761733
H        -2.26872990565244       0.92493942981911      -1.64645229145384
H        -3.29902843638515      -0.21262607719992      -0.77145110481405
H        -2.92033266688719       1.06737835098812       1.15811037244768
H        -1.71126510349673       2.04134363259385       0.31005317757592
H         1.38795318785740       0.11126650651310      -1.28785899774835
H         0.02790614804492       1.26738659005354      -1.25843994771336
H         1.57386966153517      -1.07725799236572       1.04082500794788
H         0.09512351938359      -2.04908659321966       1.30879212879652
H         0.88530377679523       2.20661995103660       0.89160538279784
H         2.17290720832389       0.97407341321370       0.90777504637717
H         1.71212734315821      -1.93810539875707      -1.29216153162404
H         0.29163779065310      -2.96831421165535      -1.00300867179878
H         3.03137573604242       1.85640304943485      -1.25608620547250
H         1.77279350399734       3.10819430517184      -1.25192041778403
H         3.02382725657706       3.10235246766727       0.00484446313237
H         2.90700516513533      -3.04330997642144       0.58405325566317
H         1.51471896071614      -4.11190664578023       0.85480673906058
H         2.42490699900039      -4.20712737435276      -0.66415679034715
C         5.52332683055018      -0.76139233306844      -0.71870520599252
C         3.99170889111566      -0.64828457987540      -0.52015545265140
O         3.31556274770549      -0.45809034166546      -1.55544329749266
O         3.56501698968760      -0.75685373908244       0.64951871987084
H         5.73239628870619      -1.59667122414802      -1.38577426566787
H         5.88930160916629       0.15301584850414      -1.18373987932630
H         6.02125740863262      -0.91653200912697       0.23625384312039
