34
C10H16F6NP optimized with DFTB in AMS.
N         2.54843812906882      -0.01273180880676      -0.99455566562189
C         0.45982997705554      -0.63532777657786       0.15816912642546
C        -1.06486049514448      -0.53083911065005       0.11704560033381
C         1.08491978802879       0.10665099971015      -1.02800100696207
C        -1.67864576305890      -1.27142419188261       1.31035407445773
C        -3.20337659704725      -1.19000183916980       1.29124900130628
C         3.13807063923072      -1.06725536079016      -1.58063429126958
C         3.26672810248690       0.87057641860110      -0.28247579195825
C         4.50704726298999      -1.22375118450913      -1.53103209392956
C         4.63901586119231       0.75897843536391      -0.20482699454818
C         5.27523064578227      -0.30398021933162      -0.83087536338389
H         0.76357271395078      -1.68356519490625       0.12542281620046
H         0.83902223618886      -0.20660081731114       1.08816075060569
H        -1.43964167639658      -0.96260974594514      -0.81800851258538
H        -1.36427853650316       0.52318003710545       0.14268618066069
H         0.73528911314834      -0.31157118452923      -1.97575261954991
H         0.83349274655298       1.17027412149354      -0.99658641390580
H        -1.30000396021292      -0.83462806813482       2.23958703205108
H        -1.36727657935191      -2.32017736349608       1.28303357039877
H        -3.53296003020792      -0.15084724747089       1.33770763879533
H        -3.61425767593559      -1.72309399716270       2.14859516000640
H        -3.60038618619281      -1.63959311963244       0.37974128633786
H         2.49157915533919      -1.77444695359825      -2.08418379351677
H         2.72086815097598       1.66035712134388       0.21721338000207
H         4.95746013474236      -2.08787928355475      -2.00185410962241
H         5.19529256745575       1.47662039565973       0.38381518366764
H         6.34753515549414      -0.42857550206073      -0.75171107437043
P         3.37375426613720      -2.07157772749220       2.05459798749138
F         1.84756422056441      -2.33853380615309       2.58952746167021
F         2.84876457786588      -2.41555366641443       0.48714793621425
F         2.96052449184655      -0.45532723183077       1.78494579095940
F         4.87428619344228      -1.74295953733284       1.42806646147200
F         3.88347531514833      -1.68350372204116       3.54812186498260
F         3.77185183916325      -3.63432696849283       2.25680630578496
