37
C11H20F3NO2 optimized with DFTB in AMS.
N        -0.10371718386516      -0.27117149470907       0.35423365645962
C        -0.68902347358320      -1.46705723204023      -0.34509041093421
C        -0.93406536815776      -0.11301811296030       1.60636430241565
C        -2.17730112143362      -1.39901220587527      -0.05360553627672
C        -2.23220408051955      -0.89396249215633       1.38790014484562
C         1.32963287169944      -0.52737428432245       0.72519134304109
C        -0.26358489675280       0.93157335942207      -0.52878199763324
C         2.24047451604521      -0.78811707633605      -0.47126456870911
C         0.41736323502855       2.19173756270579      -0.01285112180875
C         3.67521026372765      -0.98637577337109       0.01762867931740
H        -0.25347409601265      -2.35421627385936       0.11765122883856
H        -0.44177552375266      -1.43376991705326      -1.40577511161749
H        -1.10517550161061       0.94796851498415       1.78847896518603
H        -0.37076552007464      -0.53502856931501       2.43825140726036
H        -2.63075042669951      -2.38575203901028      -0.15266813041963
H        -2.68530170304268      -0.71254503574342      -0.73693630011907
H        -3.10822729583934      -0.26821037311658       1.56543656247776
H        -2.25138903298100      -1.74199400153293       2.07612147653693
H         1.31918608920134      -1.40357669856315       1.37972459653168
H         1.67634668670953       0.33338553940032       1.30135389332304
H         0.13762801181116       0.67530543677580      -1.51196029770327
H        -1.33748162914004       1.10492160900459      -0.63081050111454
H         1.91334394864474      -1.69066994025250      -0.99305895567413
H         2.21067974550080       0.04763519304024      -1.17692082939980
H         0.13303993852707       2.41777207945939       1.01335637036883
H         1.50136008869091       2.11186741127872      -0.06911160054704
H         0.10412615526198       3.02225934150332      -0.64527380693908
H         4.03076030601418      -0.09550484722642       0.53694599433472
H         3.72896224304627      -1.83455994837542       0.69862014616076
H         4.32742376023094      -1.17923895532396      -0.83339400340119
C         0.26924731763311      -3.90687956672270       2.41609883474538
O        -0.15861104297276      -4.86096692996947       3.01823414166539
O        -0.11453694998265      -2.73576544325329       2.26808361095238
C         1.64963553100404      -4.14803588009929       1.56391509637178
F         1.45798286289734      -3.77191807032141       0.26192573649268
F         2.13243664868343      -5.38930666251402       1.53393401922597
F         2.64678917676294      -3.34298967395114       2.01221376594562
