27
C7H13BF4N2 optimized with ADF in AMS.
N         1.26628774204760      -0.61189787395981       0.33799077173234
N        -0.51783940377519      -0.03766444614703      -0.75163501984673
C         2.66952672463368      -0.65719005676552       0.77384075308409
C         2.83142188663685      -0.19446950324060       2.21645550690611
C         0.76303512286318       0.28093435417058      -0.51890465199630
C         0.29116229260439      -1.53157849345473       0.65389168239932
C        -0.83159767832728      -1.17381003905638      -0.03420697683071
C         2.45319143787552       1.26803123416388       2.42803290808699
C        -1.35522658946128       0.61164094378158      -1.75669055637351
H         3.22585408645656      -0.03259550572618       0.06014969481425
H         3.00868250350676      -1.69095149265802       0.62007797735912
H         2.23671430214512      -0.84263046591320       2.88437901132189
H         3.88855735984154      -0.35620274673047       2.48656632821203
H         1.34854747130422       1.03686164908590      -1.03343124700275
H         0.48278129916878      -2.36898890883240       1.31177545344402
H        -1.80834611168840      -1.63679354036012      -0.09127877821091
H         1.39669159153876       1.45070404606965       2.17632786151861
H         3.07143425490878       1.92811370785074       1.79946812906126
H         2.59969495433341       1.56427731895311       3.47705140921526
H        -1.45720181898898       1.67786931866168      -1.52079020265560
H        -0.87424799345885       0.47546933231427      -2.73458425449065
H        -2.34358171321105       0.14014840736801      -1.74175763459559
B         2.59774076988366      -0.44475181445959      -2.86196708441139
F         3.38926560376589      -0.61732323265546      -3.99101683206949
F         2.57173720313996      -1.61167072069043      -2.04520336549255
F         1.24397241169761      -0.11049986211797      -3.22463044881031
F         3.09995196525875       0.65754842174854      -2.05350438616878
