53
C15H29F6N2P optimized with ADF in AMS.
N         3.19976840743881       0.71924864021106       0.41788308145286
N         2.90315529369699      -1.37693417595301       0.91791055597005
C         1.76534251861535       2.59342959800440      -0.29964845268129
C         3.03522854392791       2.17649916715508       0.44207062026116
C         0.88901240102912      -2.54864508752636       1.73424347632422
C         2.41203207153695      -2.57899506450814       1.62363879431920
C         0.48951226203466       2.03144137234826       0.32066498538207
C         0.17973544519579      -2.43582890843459       0.38684041719423
C        -0.76629403196970       2.36001213151616      -0.48308845479707
C        -1.33956881027592      -2.38421473009596       0.52061441615575
C         2.77407219309128      -0.12300604683446       1.37278524193084
C         3.59792959972886      -0.02544028101932      -0.67478970006940
C         3.41626185475907      -1.34330665804321      -0.36128263629082
C        -2.03352602893237       1.80728096934699       0.16637401524034
C        -2.03884570742221      -2.24252573520423      -0.82978400140388
C        -3.28944205070024       2.06918931026421      -0.65949381376477
C        -3.55861335143367      -2.16265325080093      -0.71616998651265
H         1.73108223762890       3.69701597370349      -0.30691301474743
H         1.84350617863116       2.27202147158366      -1.35338720447450
H         0.57145806106357      -1.72234055437353       2.39894792949101
H         0.58987427044101      -3.48496209942397       2.23746783199913
H         3.93503870848329       2.62026375064180      -0.00992013722896
H         2.99949910406153       2.48439932101587       1.49800351237077
H         2.89636957574083      -2.60497985903856       2.61139711322259
H         2.76317260781897      -3.43649892336011       1.03621394433958
H         0.38030039490431       2.41795524854294       1.35262536676905
H         0.56582819188613       0.93221497234099       0.39840750630346
H         0.47968684899078      -3.28373215963000      -0.25182720349128
H         0.51829486582339      -1.52365309256102      -0.13996344027966
H        -0.85823913741221       3.45539657979480      -0.60531229487165
H        -0.66216904917646       1.94039683284552      -1.50110782646423
H        -1.62889551574564      -1.54022665841313       1.17687411705583
H        -1.69812241840053      -3.30149976330191       1.02488128879271
H         2.37456989310759       0.16837943065788       2.33523239271739
H         3.98029445223775       0.43499043622764      -1.57742953079380
H         3.61608137732494      -2.24738827586377      -0.93586888438928
H        -1.91222169639077       0.72030950287776       0.31967598944169
H        -2.14694620774052       2.25397146081184       1.17157314854955
H        -1.75478966628503      -3.09712495610898      -1.46940399115809
H        -1.65634341271828      -1.33869767760555      -1.33992693897248
H        -3.43091049845490       3.14854762910971      -0.83207475738604
H        -3.22215111748470       1.57690233479582      -1.64285823908995
H        -4.18808279250534       1.68842100669059      -0.15274554832059
H        -4.02967568539230      -2.07365276003994      -1.70664862194262
H        -3.86574647629987      -1.29113068314297      -0.11537482716023
H        -3.96553795126763      -3.06486969438309      -0.23101250593616
P         3.91230044432049      -5.00433958857803      -1.35813778644006
F         2.43500407952602      -4.24100456303547      -1.05466351478548
F         3.43644331671915      -6.26501767695129      -0.42110631940467
F         3.27615087576011      -5.69464007617634      -2.69687894924941
F         5.37221554241648      -5.68311553632592      -1.63091164239888
F         4.35287086054468      -3.65226699600122      -2.24869658604827
F         4.51963415322240      -4.23026208805147       0.00862408417011
