32
C10H18N2O2 optimized with DFTB in AMS.
H        -1.97130733623319      -2.27875099494893      -4.62873226276833
H        -3.42414092927491      -2.17963819941343      -3.59957120580080
H        -2.07398049244584      -3.24588974279500      -3.13486582601079
C        -2.33972296591331      -2.29773373015518      -3.60487047178679
H         0.23555468061591       1.32608140130047      -2.43025756578112
H        -0.31936109658396      -0.41889215401767      -4.51699064265464
H        -2.68029425513844      -1.35605284420400      -0.95067921282005
N        -1.72153949481286      -1.20130426754537      -2.88145099788700
C        -1.98053650470600      -0.87261375717332      -1.61084634579379
N        -1.21969759449424       0.18640988389580      -1.31947914301997
C        -0.46506458411953       0.51014495916334      -2.41834627017124
C        -0.78150192754419      -0.36226668879303      -3.41453324891981
C        -1.12783734806921       0.82900901688196      -0.01826323584893
H        -1.00194966290966       1.90314346627147      -0.17973396351377
H        -2.06260914339998       0.65612159662076       0.52296240517325
C         0.06462778334503       0.25643005346145       0.75484926612269
H         0.97582544236587       0.41311371635953       0.17027250735808
H        -0.07432769456531      -0.82211897778278       0.87907591487211
C         0.20018280718634       0.92882873564643       2.12384980257631
H         0.32490098489023       2.00806336203420       1.98697421101834
H        -0.71673899388603       0.76783356227009       2.70106517110773
C         1.39444610120965       0.37199358014756       2.89631601889211
H         2.31937055297937       0.54503497398730       2.34529977392017
H         1.28006857758875      -0.70086452753923       3.05594663269140
H         1.47025302572049       0.86227784997013       3.86669013379357
C         2.10968547396540       0.88536450450414      -6.77741083962057
C         1.19964560321157       0.56684311592958      -5.57500990989609
O         1.32924243520563       1.22862167605830      -4.54184207205835
O         0.36541686975305      -0.37191783525216      -5.76346765653412
H         2.94880194201774       1.50153993268082      -6.46079231654351
H         2.46881255826287      -0.04011623028752      -7.22438361387207
H         1.52411360937874       1.42682612402431      -7.51998911332398
