48
C12H22F6N2O4S2 optimized with ForceField in AMS.
N        -0.10905551377888       0.02463602245938      -0.06910576488122
C        -1.02587524238388       0.53277315130050      -1.14158366985733
C        -0.62801719076941      -1.29351856869666       0.42386261812880
C         1.22786257121486      -0.19954412611186      -0.72027651347770
C        -2.49856272603591       0.64025553416258      -0.71128061316378
C        -2.10131157792782      -1.25977801621924       0.87813549115140
C        -0.00730080929058       0.98742283994142       1.08265730866160
C        -3.00901314239330      -0.70925931123748      -0.21734265781577
C         2.36919845804077      -0.65712569472283       0.22158374496881
C         0.60024155348447       2.36356067658895       0.75304208293143
C         3.64759340542071      -0.92227779265701      -0.56994566771673
H        -0.99892363756243      -0.15127561586583      -2.02235225895966
H        -0.69344682391872       1.51807599671437      -1.52978006030551
H        -0.03481657492369      -1.65764545391869       1.28981529501058
H        -0.54249589140278      -2.06880412968619      -0.37242911171656
H         1.56246195075906       0.72270243368992      -1.24614391597528
H         1.13249206208609      -0.96622662057037      -1.52433530873499
H        -3.10709248153954       0.95252526057627      -1.58760299249800
H        -2.63605493588539       1.41854457445777       0.06722331613872
H        -2.21656524929879      -0.66211093925035       1.80614365401457
H        -2.42473867361725      -2.29482442310489       1.12278308723187
H        -0.99961243598779       1.18327470750487       1.53271747949173
H         0.58602893816373       0.54212382194745       1.91057670548634
H        -4.04126654847136      -0.59436854003954       0.17791602672067
H        -3.04356218777052      -1.42729154949448      -1.06635893407672
H         2.59698835295930       0.12376150585412       0.97557599285386
H         2.10164675224256      -1.59460143761521       0.74841758928550
H         0.63605268035715       2.96774252792685       1.68431376436949
H         1.63987676164733       2.28320223955346       0.37906422543571
H        -0.02246858891835       2.92411433057310       0.02853676926696
H         4.46643430100987      -1.20410001971802       0.12574093068658
H         3.49148667844056      -1.75433765291570      -1.28878219811421
H         3.95026202423121      -0.01202446800930      -1.12951771952457
N         8.22679386858386      -0.13167862143504       1.78273884119189
S         8.16891030139010       1.44502036324124       1.33839707035731
S         8.34568132625948      -1.35332637946788       0.69612029961718
C         6.46881528179437       1.94407247750713       1.16318701971711
C        10.05151770398275      -1.84429948571492       0.55167023005106
O         8.81337693897541       2.28294161194672       2.40579402141801
O         8.88720397361591       1.65411383802605       0.03402308797536
O         7.83377395995735      -0.92099390493356      -0.65000873051876
O         7.54403029385367      -2.52654902412930       1.18382930485486
F         6.40975427070452       3.29179338219402       0.86405442364846
F         5.79090668781590       1.70603440454823       2.34374151372966
F         5.87837847860545       1.22566707968303       0.14366232746448
F        10.16084296155969      -2.87175483856184      -0.36612138920441
F        10.51435196260456      -2.27686188732172       1.77995232438274
F        10.81127129551568      -0.77030176339954       0.12894389669846
