24
C6H11BF4N2 optimized with DFTB in AMS.
N        -1.08274248577780       0.19343533292138      -0.60482853741198
N         0.48275004832988       0.17974022466606       0.87210375656018
C        -2.35518533702529      -0.14535178744993      -1.23581558954202
C        -0.53909858560041      -0.51343808365216       0.38040830215551
C        -0.41213794585271       1.38337050504102      -0.72516161953193
C         0.57478891163220       1.37463104738316       0.20838543980192
C        -3.46867837053272       0.66775259993622      -0.58397256250078
C         1.16875294076792      -0.17728290501202       2.10243746597321
H        -2.27945090958855       0.05845543245882      -2.30788529408915
H        -2.52292837422137      -1.21247136986270      -1.07191315619821
H        -0.86274110230438      -1.48368203698271       0.71683225461066
H        -0.68393368525310       2.12363630165756      -1.45721561515604
H         1.32513544643483       2.10734701202024       0.44869809857040
H        -4.42299401673825       0.38167780460379      -1.02368117577328
H        -3.30744927414747       1.73406210403596      -0.73919108578699
H        -3.49000980911724       0.46095249334413       0.48521931534131
H         1.20263330779134      -1.26193560608405       2.18252487644840
H         2.17338130667789       0.24209067242300       2.09786606792231
H         0.58734767996197       0.21789274333685       2.93736730046151
B        -2.28953608220352      -1.04239475228309       2.55847131704384
F        -1.95446623964416       0.29931481069221       2.20936253184991
F        -3.15721702218094      -1.08095708045432       3.60670768800205
F        -1.06813148082998      -1.69988478091682       2.84125308516183
F        -2.83895556807818      -1.63213909402260       1.39126343528732
