26
C8H14N2O2 optimized with ADF in AMS.
N        -0.41637133727302       0.47252781862765      -0.61497189232757
N         1.64878753777806       0.13039318883614      -0.11925161221780
C        -1.74351221705720       0.30025644332526      -1.22716330642306
C         0.67182534599161      -0.22942110393500      -0.97439900995756
C        -0.13059497863329       1.27418761446097       0.47447227023642
C         1.18001897777643       1.06256847433432       0.78858836361181
C        -2.54540834993763      -0.75859021967706      -0.49066184452668
C         2.99572830635020      -0.42393558862062      -0.17624518004290
H        -2.23166821623672       1.28673216728054      -1.21959273345309
H        -1.56756293307507      -0.04051665475205      -2.25794520636805
H         0.81495342008388      -1.06542768506855      -1.83284363537549
H        -0.87120729863424       1.92360410285318       0.92522996483154
H         1.80629498442051       1.49264417931999       1.56057456837733
H        -2.05021615262209      -1.73026496867213      -0.63015498951781
H        -3.54829782081464      -0.82921459315181      -0.93624101020293
H        -2.64711700890535      -0.52686949527266       0.58029155285965
H         3.01287007267424      -1.17542712506202      -0.97546545634369
H         3.71862365093207       0.37187223651928      -0.39752818486624
H         3.23869084785138      -0.89902981487888       0.78301764818265
C         0.15240139738428      -3.72342062269562      -4.21946470891295
C         0.05291846874079      -2.57412114791832      -3.22034304024722
O        -1.07972778251357      -2.13899759891131      -2.90094110403358
O         1.18072501972250      -2.12992234114519      -2.77341198673948
H         0.61741183485243      -4.59614451287794      -3.73602823136439
H        -0.84194847319006      -3.99607338971350      -4.59479080093785
H         0.80420004253448      -3.43283495670467      -5.05676428784106
