33
C9H15F3N2O3S optimized with ForceField in AMS.
H         0.47472713617051      -0.45833703291534      -4.91548797670518
H        -1.18174346244323      -0.69775857696533      -4.23203652206724
H         0.01834379990545      -2.04626694092494      -4.17474908711221
C        -0.10619573343238      -0.94507798138308      -4.10424827022569
H         2.48090546134786      -0.09520682435787      -0.35840674361318
H         2.42423715100360      -1.16668116020591      -2.80558414028644
H        -1.36678536935026       0.46520732698679      -1.96665334724690
N         0.37529540423371      -0.48111778298076      -2.80954429137436
C        -0.32632385089575       0.18047294804385      -1.86858602352829
N         0.42899894577189       0.42185047347297      -0.77926374763997
C         1.64168687187438      -0.10577411571350      -1.03941272333835
C         1.61042012065749      -0.66121187676945      -2.30199933083735
C         0.01739048215037       1.10479008251790       0.44432414665066
H         0.80648328280902       1.82899394640982       0.74464287588253
H        -0.91965187481178       1.67487468891197       0.25922513601252
C        -0.21711802755218       0.08586851556342       1.56182889650213
H         0.72358984135579      -0.47698466651066       1.74953554549444
H        -1.00022227391209      -0.63336935043511       1.23490519582233
C        -0.66534451247189       0.77573805848471       2.85432843833425
H         0.11935664064527       1.48821119959223       3.19042584166117
H        -1.60333102011423       1.34414179051285       2.67094516428677
C        -0.91523242355473      -0.24417449675915       3.96097762709768
H         0.01443885359005      -0.81193440197358       4.17895797795336
H        -1.71531931996694      -0.95286290895642       3.65783710238220
H        -1.23673176810856       0.28031796207427       4.88529642946588
S         6.28614640579301       0.13098324426640      -1.65064524449685
O         7.03939173736560       1.45418374803544      -1.44995775365344
O         5.74166136601822       0.25206187150699      -3.08170512875298
O         5.03225695913262       0.31373981747865      -0.78485281361428
C         7.24785494775701      -1.37017314601341      -1.30587917296681
F         7.64422372092241      -1.37120252569586       0.01745873109001
F         8.36417718145425      -1.40134859752513      -2.11881211334395
F         6.46996831885547      -2.48494666627277      -1.55197686973244
