48
C14H28F3NO2 optimized with ADF in AMS.
N         0.13406826255639       0.18377066062508       0.07929680927718
C        -0.62595432689034       0.86478146943707       1.21548274366611
C        -0.81823206483887      -0.31827989488523      -0.99111049744713
C         0.89633358691373      -0.99839788972813       0.64033198461017
C         1.07219391112059       1.21263892511612      -0.54705200473560
C        -1.75961938364483       0.06026528347270       1.82566457938242
C        -1.76928781096176       0.70853451636947      -1.58019429762306
C         1.85681133490318      -1.69250200113382      -0.31278172613983
C         2.20458758478009       1.68879032790220       0.34671454231452
C        -2.41633598577285       0.89935204289809       2.92505956122047
C        -2.67686839576406       0.01430420316672      -2.59575309778631
C         2.56408275670547      -2.83582191483670       0.41554065025419
C         3.10618861866287       2.62179093916227      -0.46351114349968
H        -0.96755087976769       1.83397117658572       0.80395133798883
H         0.13186553551574       1.08960178302414       1.97907153732277
H        -1.37902620670977      -1.14884600297447      -0.53468014352444
H        -0.18381094408400      -0.73972876381238      -1.78445442962913
H         0.13827297633176      -1.71014952900922       0.99880938783869
H         1.44002046137158      -0.62218927203831       1.51874241165740
H         0.43535949034940       2.08186096554213      -0.78746159551770
H         1.45759894069004       0.75134758397916      -1.46910526555083
H        -2.51870942842298      -0.18626081130693       1.06559819323073
H        -1.40178894747420      -0.89080210672795       2.25667098046639
H        -2.37282402922845       1.18816009030064      -0.79597901180366
H        -1.21709680002106       1.53016948661045      -2.05867316310141
H         1.31972559539215      -2.09321698377986      -1.18696163244447
H         2.60760258587264      -0.97887746732956      -0.68720638426087
H         1.79288570615763       2.25020498070299       1.19923006184223
H         2.80482238084180       0.85092471294259       0.74046745149672
H        -3.24325393668992       0.34819570169104       3.39527290638976
H        -1.68961513300221       1.16337465368406       3.70817226390907
H        -2.81384372357769       1.83804018761647       2.51102747487211
H        -3.36993853190280       0.73829090366134      -3.04674592467434
H        -2.09316455517764      -0.44436247418677      -3.41032791428236
H        -3.27921058739298      -0.77793972586704      -2.12205934959353
H         3.26812417689307      -3.34876461502348      -0.25493749871138
H         3.13418211363513      -2.46062898900003       1.27965596045606
H         1.84225260415989      -3.58192450259452       0.78296357228653
H         3.90034364392526       3.03851925705705       0.17199786150733
H         3.58149705337630       2.08846183304486      -1.30250124977282
H         2.52262342756948       3.46239130692104      -0.86549965195451
C        -1.15255729251799       4.56082529129476       0.26573300082917
O        -0.95241961743670       3.43839746774591      -0.29737698403079
O        -2.01897161761557       5.42284414734661       0.08852834312855
C        -0.09378081208239       4.86522317658833       1.39371096021581
F         1.19465365122854       4.90558295324212       0.89740998376575
F        -0.08452568110820       3.86883243080657       2.36437037401924
F        -0.29094672386780       6.03258112359670       2.05449524273569
