57
C15H28F6N2O4S2 optimized with DFTB in AMS.
N         0.41288459524502      -1.22818343978574      -0.07906149070018
C        -0.57575327502082      -1.65580562609578      -1.12851035475823
C         1.13294392641030      -2.44168237944126       0.44515025198511
C         1.41402444432683      -0.34671344749001      -0.78563400285161
C        -0.24683883706087      -0.51518437592255       1.06332878705945
C        -1.53843901107304      -2.73361392861848      -0.64985190184223
C         0.20235530575833      -3.54130183772768       0.93549366288342
C        -0.76513506675490      -3.95891736785705      -0.16824068120455
C         2.49991740758318       0.25588905066480       0.09891641067884
C        -0.93845786885797       0.78955448338357       0.69625452261660
C         3.51259075864677       0.98036393226501      -0.79840599564354
C         4.66413343067879       1.55571889302364       0.02944439598953
C         5.69694439666225       2.24075779858993      -0.87065799586703
C         6.85635436405043       2.80944141764367      -0.05452475316776
H         0.01192292127595      -2.04037781619419      -1.96477237350018
H        -1.11511828745486      -0.76716637071399      -1.46052016926714
H         1.79465558609139      -2.11591348339664       1.24856965403365
H         1.73722339026579      -2.81977983309801      -0.37923294921260
H         0.85124570146343       0.44170824131986      -1.29080598952166
H         1.88015261869681      -0.97637000802590      -1.54469788347298
H        -0.97529678841983      -1.20165349652238       1.49830692561948
H         0.52916383278105      -0.32606790565945       1.80853158720066
H        -2.17064809010570      -3.00167356834982      -1.50035894610321
H        -2.19010724566946      -2.35482114025278       0.14369670702684
H        -0.34733627150102      -3.22720735846572       1.82825631650596
H         0.83527806823502      -4.38809502573031       1.21306075941725
H        -1.45870479353619      -4.71444692503957       0.20751111847140
H        -0.20225820651238      -4.38646109235929      -1.00295592687055
H         2.07651500032125       0.96079986369375       0.82058849703660
H         3.02220773836532      -0.53049980347818       0.64768587757024
H        -0.23832137532647       1.52390071012136       0.30317904427572
H        -1.73611226402006       0.63604396495937      -0.02827233205500
H        -1.38006453662425       1.19441804530444       1.60686993016171
H         3.00885154984565       1.78413988381818      -1.34632353396903
H         3.91077722930623       0.26958927059237      -1.52822533001823
H         5.14683782756780       0.74647182785150       0.58728499258054
H         4.27179487758771       2.27634631686571       0.75624681225484
H         6.08226064062786       1.51583761762337      -1.59481291739286
H         5.21390992460208       3.04905794264443      -1.43056304911349
H         7.36389859170024       2.01403796548652       0.49280037473688
H         7.57720878026591       3.29123069843537      -0.71532485816380
H         6.49441724862476       3.54774406383113       0.66287221228401
N         4.04444670317095      -4.00476546180117      -2.91005984059244
S         4.47758970237614      -3.38324760690877      -1.50104082348957
S         2.59066261669382      -3.63531056200689      -3.45976383438804
C         3.90414228017365      -4.60632654970327      -0.19114730153872
C         2.72845329652676      -1.92389652375154      -4.24494470325769
O         5.90827211614821      -3.41612061756438      -1.40920573068021
O         3.79727132526270      -2.15305711659128      -1.11917950173777
O         1.55544917241750      -3.44453094697175      -2.44786406657490
O         2.29243240576591      -4.51178196948236      -4.55513166221124
F         3.71887881949306      -3.95425817390787       0.95802254748005
F         4.79799588296294      -5.55612318861744      -0.00116280512119
F         2.74705495453358      -5.16637017671967      -0.52394110439759
F         2.65378954009856      -2.00962983878281      -5.55889797356132
F         3.85904734683974      -1.32441130710945      -3.91520803966718
F         1.71533838528813      -1.16332217907451      -3.81462858815505
