28
C10H16ClN optimized with ForceField in AMS.
N         1.75208675167226      -0.03514062529758      -0.48962773014134
C        -0.63040990215138      -0.02130017280610       0.11289818014269
C        -2.06825977121410      -0.02739820999794      -0.41750717817335
C         0.38798804171833      -0.06674751574264      -1.03049023424655
C        -3.07436654978737       0.02571921963962       0.73812556358159
C        -4.51005281413750       0.02900390165139       0.22181646785183
C         2.38148315507967      -1.20526034262876      -0.16329338850131
C         2.37057565672771       1.16698464312700      -0.27930445418648
C         3.66464883182404      -1.19001630781178       0.39048915176210
C         3.65330983935367       1.21800464322789       0.27281963819814
C         4.30142977690157       0.03075951864349       0.61106321233421
H        -0.47593243855727      -0.90374104113505       0.77258549346043
H        -0.46156278838250       0.90141531589738       0.71068317166175
H        -2.23742824468476      -0.95212471427203      -1.01284102564650
H        -2.22055483628281       0.85437724018404      -1.07859291461043
H         0.23518804138777      -0.98840965584825      -1.63567177017006
H         0.22761936313033       0.79794408401092      -1.71204140752176
H        -2.90744786034265       0.94717384415595       1.33829975949403
H        -2.93247045046350      -0.85707493488920       1.39971838583601
H        -4.68594323842411       0.91616989376216      -0.42365550879100
H        -5.21246313692131       0.07038033031212       1.08109307820754
H        -4.71298045478028      -0.89599892692304      -0.35925138306621
H         1.88825541945917      -2.15709817895151      -0.32112813603711
H         1.86834423255671       2.09416894848174      -0.52898153317866
H         4.15805958436985      -2.11737247623570       0.65043927982268
H         4.13775900213081       2.17095228105656       0.44069749715090
H         5.29355099696280       0.05701093774446       1.04414279818775
Cl       -1.36465494464515       1.71392579364487      -4.04414792342092
