41
C13H25ClN2 optimized with ForceField in AMS.
N         1.39410317526429       2.26038376256041      -0.00724501735102
N        -0.80870512366603       2.43807928210963      -0.26358313346703
C         2.76974829111091       1.82642367323175      -0.24399038612519
C        -2.14840329534600       2.25625633936028      -0.82254454715947
C         3.02443476897142       0.44366620110153       0.37487736792666
C        -2.41335623047027       0.77869092974673      -1.15078513300038
C         2.11039249694508      -0.63492313740790      -0.22872304213471
C        -2.38558131391352      -0.10373602710290       0.10605636575915
C         0.36162804788922       2.14757970920006      -0.86523992678342
C         0.86169605177067       2.64455852989686       1.17022839431459
C        -0.50343072826724       2.76197511611876       1.00939557361633
C         2.46545681652941      -2.02743603445172       0.30239405384991
C        -2.57442961721093      -1.58088389533320      -0.25377259695363
C         1.51840660984534      -3.08556572800555      -0.25785903940628
C        -2.54435336505155      -2.45966929910265       0.99348256135944
H         3.46981059307519       2.56643118234110       0.20099222237788
H         2.97431970358031       1.78748077386724      -1.33640340156515
H        -2.24048153814976       2.86054768065457      -1.75067169372371
H        -2.91654850386491       2.62013491460684      -0.10530628507068
H         2.86593781171446       0.49551413988442       1.47434161074734
H         4.08716089760941       0.17097536000807       0.19407418297690
H        -3.41224859661232       0.69617942151157      -1.63215181515094
H        -1.65557600478402       0.42061324576184      -1.88089214274842
H         2.20925644759777      -0.62746627307196      -1.33651712136786
H         1.05385765380026      -0.41199455185547       0.03408002723542
H        -3.19689437658399       0.21728308414026       0.79466127043026
H        -1.41151700758394       0.01524303031870       0.62809001826824
H         0.45119618518882       1.78118657097705      -1.88030379856633
H         1.41678628372776       2.77027299371763       2.09081043362783
H        -1.22431656401735       2.99760690056038       1.78146237467620
H         2.39572646554481      -2.03492175355821       1.41189808338014
H         3.50706188260620      -2.28465361910003       0.01130756157457
H        -3.54943638334356      -1.72005928701448      -0.76992508162113
H        -1.76202740380044      -1.90458084678019      -0.94056621182294
H         1.56655505967494      -3.10056257497574      -1.36757465321764
H         0.47545887256673      -2.87560402577518       0.05969791337615
H         1.80943038294209      -4.08638232366656       0.12447864132376
H        -3.37656327888743      -2.18775665460094       1.67696049541705
H        -1.57795431736351      -2.34059391714799       1.52847658504140
H        -2.65792394391047      -3.52437665341310       0.70035766657662
Cl       -3.76293644282787       1.85618656048808       3.35895987488009
