40
C10H15F6N3O4S2 optimized with ForceField in AMS.
H         0.48358722668951      -0.45966849628708      -4.92049547353792
H        -1.18426022729031      -0.67067009121848      -4.25589276714564
H        -0.00629019156739      -2.03851306204848      -4.18070977527668
C        -0.11445977337765      -0.93535634630100      -4.11520860467191
H         2.46354961685767      -0.04521039997987      -0.37373277844811
H         2.41247237079545      -1.14635800197985      -2.80851883675647
H        -1.38768740955592       0.47203259982633      -1.98441301475048
N         0.35926241115649      -0.47424684469998      -2.81688857011246
C        -0.34773551307704       0.18838651782123      -1.88055996490885
N         0.40429352129850       0.43766903372970      -0.79065591211555
C         1.62175651570829      -0.07896960789097      -1.04924202871426
C         1.59458532831975      -0.64481120025912      -2.30720823619191
C        -0.01500051679722       1.11729727263270       0.43229047043640
H         0.75950093412113       1.86043478927284       0.72348093989274
H        -0.96577174555420       1.66489159255091       0.24955466859051
C        -0.22117455834344       0.09879131684857       1.55720384359492
H         0.72929669877377      -0.45006392218351       1.73758875909088
H        -0.99624962050363      -0.63417599394327       1.24158959613011
C        -0.66518107245253       0.78709173938905       2.85258738075884
H         0.12182892998875       1.49779457956944       3.18721126870290
H        -1.60200252866759       1.35844095919343       2.67280939433843
C        -0.91522889502309      -0.23344800822837       3.95970339777962
H         0.01317901596873      -0.80369750653657       4.17648105317369
H        -1.71749577279740      -0.94039717599341       3.65807729342628
H        -1.23457804101851       0.29047286336820       4.88528136062314
N         7.33677021007823      -0.43074136446412       0.61018128381158
S         8.67986054542225       0.30348637107166       0.02497663527041
S         6.17702606997968      -1.06771185933257      -0.35732942020029
C         8.35773298913464       2.04252159262368      -0.18938088392374
C         6.41915956888823      -2.82631995328970      -0.48504657439507
O         9.80073594481728       0.13614573747030       1.01091171861562
O         9.07799741412095      -0.29776960761949      -1.29439089461327
O         6.22504819258325      -0.45382607892371      -1.72926218913871
O         4.83288017910643      -0.81391033610271       0.26044622869312
F         9.50320877536554       2.67285445295076      -0.63642653958413
F         7.97408083010266       2.59372889127903       1.01839441505879
F         7.34732392297474       2.22046721110144      -1.11459433108358
F         5.46949215408198      -3.36365994250364      -1.33305279356588
F         6.29407926783203      -3.40121083360565       0.76541944869711
F         7.68053075306001      -3.08640394230769      -0.98505693485020
