62
C18H36F3NO3S optimized with DFTB in AMS.
N        -0.75399266187789       2.14279123491802      -0.47938477053633
C        -1.41347154802838       2.56900555218302      -1.75547749449008
C        -0.45279645730368       3.37384108019569       0.33538618693452
C        -1.62050514071767       1.20328512704858       0.31126767290092
C         0.55233609244206       1.48464432409855      -0.85078087301545
C        -2.68966732619694       3.36733914700630      -1.51540284087498
C        -1.68377278841547       4.22556206594617       0.61046202754223
C        -2.39692677077973       4.61464352510630      -0.68194778561215
C        -2.05088728476807      -0.06709349621217      -0.41340001567762
C         1.34223664007243       0.90210486961442       0.31980099166750
C        -2.71168300060670      -0.99272914143685       0.61807744689396
C         2.67906102104953       0.35250979255547      -0.18859062376841
C        -3.11047828117759      -2.32968871707526      -0.01064223790704
C         3.48218339821176      -0.24102318520824       0.97308684603635
C        -3.75759751265475      -3.25275378311612       1.02683595511890
C         4.82986172849840      -0.78942142114743       0.49557430410980
C        -4.15601424271405      -4.59215469322297       0.40986139373507
C         5.62934032781942      -1.38051090017981       1.65555611233398
H        -0.68854726697340       3.18208412990635      -2.29917370530391
H        -1.62051874894324       1.67253866112260      -2.34314747676896
H        -0.01295566848517       3.04999698424286       1.27915408274457
H         0.28619370917846       3.94885819792061      -0.23002910813638
H        -1.05098518703731       0.92658836552028       1.19491425422339
H        -2.49780114635184       1.75661041291754       0.64415938079360
H         0.32174751719361       0.69985074481569      -1.57602830836327
H         1.14873242129034       2.24853550575971      -1.35840733795089
H        -3.08765300840081       3.65453005026703      -2.49254823941135
H        -3.44126833585009       2.74777290394655      -1.01997998587064
H        -2.36266039005812       3.70219415614244       1.28757748030343
H        -1.34010067157887       5.12393612968541       1.12946215251463
H        -3.33269687383666       5.12834988336722      -0.44998880072189
H        -1.76746895499648       5.29852405147442      -1.26158091487369
H        -2.75998502029218       0.15411607182523      -1.21720542436631
H        -1.18988307483608      -0.57989171310648      -0.85057152319402
H         0.78624490294600       0.09382430872473       0.79870013667156
H         1.53484412789434       1.66578246964210       1.07525020955491
H        -3.59753946083489      -0.49951888868220       1.03060630599445
H        -2.01191002183462      -1.16532339775219       1.44206546346260
H         3.25314914224717       1.15738320042619      -0.66140622329874
H         2.49768352796781      -0.41900101663210      -0.94566976342540
H        -3.81210056363660      -2.15343377560396      -0.83401636739565
H        -2.22172520623738      -2.81573607836457      -0.42846119523667
H         3.64751798208041       0.53224263365624       1.72991360279770
H         2.90312930401356      -1.04469910678548       1.43914171792886
H        -3.05391147532156      -3.42458218314558       1.84772048049460
H        -4.64510702702190      -2.76505097086529       1.44360987796350
H         4.66178006890608      -1.56240469224303      -0.26263609623316
H         5.40701141021683       0.01628386464089       0.02847307272203
H        -4.61468470189380      -5.22977837723391       1.16584535430893
H        -3.28021496649838      -5.10425344318290       0.00852063659568
H        -4.87198769475517      -4.44332083393235      -0.39997957881742
H         5.82296890241603      -0.61928275429247       2.41230804157420
H         5.07855792500313      -2.19914337327409       2.12057678164472
H         6.58436460895706      -1.76404005085777       1.29547272933837
S        -0.40484207865737       1.66491365387924       3.45454097361480
O        -1.64491694346780       2.33142051631488       3.07557758772769
O         0.79136952830375       2.42896712640749       3.12865448052618
O        -0.34134679995784       0.26707858409274       3.05137283531931
C        -0.44700735402721       1.61996490924622       5.30111246670842
F        -1.50543091330123       0.93967816024618       5.72466699641470
F        -0.51569289680044       2.85108770685413       5.79339226031134
F         0.64489260651924       1.03710466433559       5.77980425962297
