38
C12H19F3N2O2 optimized with ADF in AMS.
N         2.16488110274870      -0.66597307398738       0.10699970139785
N         2.70301157787268       1.41738519875992       0.31904850826514
C         0.09989761399686      -1.95486782108322      -0.24255041464672
C        -0.61340767893501      -0.66379219158426      -0.63469486181472
C         1.60226610238611      -1.87399696052526      -0.51274050928765
C        -2.13327628877147      -0.73037704817538      -0.51609448898923
C        -2.75600607649969       0.66303321361217      -0.59123823220744
C         2.45004844739042       0.45325301489689      -0.57962575593664
C         2.21871614883689      -0.40677549636018       1.46190090787300
C        -4.27056720537012       0.66322664983064      -0.41296700592796
C         2.56814789763207       0.90588800210401       1.59548089806189
C         3.03808729942045       2.79473785703318      -0.04061036186252
H        -0.07836917099360      -2.18083163669136       0.82531397968124
H        -0.29388576939507      -2.81172139679679      -0.81658136764391
H        -0.32894489764206      -0.38637151692139      -1.66455409601150
H        -0.25590469284599       0.15493187676470       0.01710535465175
H         1.79465275837004      -1.77910381251976      -1.59152019548420
H         2.15116091359473      -2.74620323972292      -0.12591772216124
H        -2.54305143378425      -1.37067041303352      -1.31919751223893
H        -2.41594791225321      -1.20627525748192       0.44298972451394
H        -2.29418855915974       1.29115395099052       0.19299824824873
H        -2.48600755755897       1.12804711300723      -1.55543746541396
H         2.30809305342734       0.57543708982408      -1.69252945221500
H         1.99340106732571      -1.16078064802377       2.20578853512998
H         2.72380855729284       1.51404332898474       2.47842760386729
H        -4.55535701860442       0.18240452754918       0.53751603836266
H        -4.66765303884254       1.68996334382037      -0.40360730141335
H        -4.76933996821409       0.11671139901061      -1.22922920042280
H         4.12926669195033       2.90908690731124      -0.08363724706490
H         2.55900219636373       2.99363926992902      -1.01557387088546
H         2.61700163159609       3.46299762210870       0.71981946522058
C         0.87578793273997       1.70788985365134      -3.13932377464703
O         1.50231092268200       0.60856267655198      -3.19695597639881
O         1.04331045726607       2.69210343434466      -2.38905766545039
C        -0.30279489181750       1.80089749543227      -4.16421232742471
F        -1.01893198034553       2.95226508074032      -4.06185185660038
F        -1.19375173658248       0.76569869429534      -3.98275741427311
F         0.14826711382268       1.71668451115400      -5.45288311325148
