25
C9H14ClN optimized with ADF in AMS.
N         1.21138308587719       0.12396128466042       0.54692440748200
C        -1.18037887060371       0.07848387594096      -0.06706316316805
C        -0.17296428599325       0.17292018938941       1.07202812472347
C        -2.60095658350183      -0.05293950694393       0.47673267798510
C        -3.62492479607827      -0.18817281877693      -0.64676432714393
C         1.90682489987317       1.26652104711564       0.33561020646555
C         1.72835556125626      -1.09348913276061       0.24374613638661
C         3.17475072622372       1.22590386745756      -0.20661498270323
C         3.00959733127599      -1.16890003153182      -0.28464852584435
C         3.73990748367654      -0.01189424687334      -0.52792508876950
H        -0.94160457888080      -0.83165488670152      -0.64605305804641
H        -1.08873398580428       0.95692413142149      -0.73487232141231
H        -0.28932468809140      -0.72741722602626       1.71401866432278
H        -0.27227540511033       1.10360623171713       1.65131759901816
H        -2.62842709645292      -0.94891457547609       1.12169558840392
H        -2.84446497800233       0.82291369518545       1.10686561586400
H        -4.64385068367101      -0.29147937430230      -0.24598582264180
H        -3.60886056930102       0.69082073131177      -1.31143298857657
H        -3.41166055337369      -1.08084361995768      -1.25578057350085
H         1.40447062999713       2.19272425263946       0.61042526572209
H         1.05819090548113      -1.96668476688395       0.49376491740284
H         3.71312914244178       2.15867022732669      -0.37607258767680
H         3.41744996320390      -2.15636787794522      -0.50604169743763
H         4.73916334357382      -0.06386435327366      -0.96514778925788
Cl       -0.42945081101579      -3.06364652601266       1.31456291890279
