34
C10H18F3NO2 optimized with ADF in AMS.
N         0.30536571559898       0.17292157801275      -0.01766902440470
C        -1.16847165178194       0.38436401782977      -0.31218487163576
C         0.62940876126766      -1.24387642821175      -0.54709434534007
C        -1.76878855868951      -1.00823632659031      -0.26833974302229
C        -0.70590487652705      -1.83317493782064      -1.00330141928301
C         1.12540972816300       1.23873144175159      -0.72015116495267
C         0.53843612810862       0.21916766370836       1.46552846510573
C         2.62262996610804       1.18430316402834      -0.40968271495975
C         3.48287336613289       1.17923114513094      -1.67193728910544
H        -1.23630931684650       0.80083152835541      -1.32944266272288
H        -1.57525792329354       1.10910640820933       0.40638282853546
H         1.12517455434946      -1.78052094827510       0.27427983745076
H         1.39519242778759      -1.16453247688110      -1.32779878896892
H        -2.75620607198786      -1.03751214075183      -0.75210735137613
H        -1.89302094138250      -1.35113279747118       0.77170028664151
H        -0.76190055461704      -2.90688387658496      -0.77454918388218
H        -0.83393455786821      -1.71615083826766      -2.09186063928135
H         0.67129997595209       2.20089192670645      -0.43131942535281
H         0.93277014337056       1.08150490346243      -1.79313374376004
H         0.41320440122656       1.25511794099920       1.80702039697099
H        -0.20155233615862      -0.43312267218624       1.94574654798575
H         1.54717754006502      -0.17340885596075       1.66751072271242
H         2.89092820928976       2.03464894875409       0.23855101112136
H         2.84936417402948       0.27187252144318       0.16289621587494
H         4.54796775013772       1.17484735354647      -1.39840816723899
H         3.30322961726784       0.25659801930923      -2.24505543003547
H         3.29164813428813       2.05526757380159      -2.31246042756078
C         3.82868184604582      -1.90141170950935       0.35538607630941
O         3.09952998160438      -1.53336479362446       1.32259348888529
O         3.55946059789798      -2.05085188302197      -0.85515451607219
C         5.33542312104024      -2.11692906046131       0.72455635125846
F         5.92449940807600      -3.11655039408772       0.00697526585150
F         5.54632307962691      -2.39653680503068       2.04321011226715
F         6.03977173661801      -0.95954517481211       0.44933639458469
