53
C17H32N2O2 optimized with DFTB in AMS.
N         3.30404326413920       1.19855627738459       0.87328913225949
N         3.52090230510243      -0.94460571895275       0.89381911509210
C         1.73608339681570       2.73366819778794      -0.19283370254155
C         2.65685903119015       2.49581369233597       1.01220483536043
C         1.94033306079543      -2.67610271061820       1.77313492750556
C         3.25762018413998      -2.37451056478173       1.06307016070841
C         0.73677481636559       1.59074614762272      -0.40207248997430
C         0.72449693402562      -2.15428174160632       0.99320199329516
C        -0.25416834828515       1.92653103965037      -1.52088784511891
C        -0.52279183698419      -3.01185577038787       1.21667117705037
C         2.88026460368101       0.07476057803020       1.45631368819695
C         4.21419715148354       0.88314631774861      -0.10273070325191
C         4.33515790301161      -0.46910307254626      -0.09691165516391
C        -1.29007828721467       0.81076205053228      -1.68767357751496
C        -1.65887973793918      -2.52037603567920       0.31352373087656
C        -2.26728496953481       1.12455598568774      -2.81816010416625
C        -2.89547713491922      -3.40864800425642       0.42810020240323
H         1.20369353555597       3.67344860673676      -0.01701756672402
H         2.34867797558511       2.85496870799287      -1.09098374285981
H         1.95581884654049      -2.28054101236841       2.79444621695048
H         1.88538652852251      -3.76713752685502       1.84640052391429
H         3.42967845672265       3.26740182179450       1.06820920274018
H         2.08720554770193       2.48909053442586       1.94530771032099
H         4.10266223094878      -2.81216259676860       1.60540073065430
H         3.22724047496452      -2.77909126008311       0.04596385274202
H         0.19215169636692       1.41095598958748       0.53207185457195
H         1.27625123894994       0.67467069860845      -0.66362047705900
H         0.95476324205780      -2.14764709363879      -0.07664237008024
H         0.50716865240051      -1.12195015018137       1.28584281562524
H        -0.76004478134645       2.87241937126423      -1.29147379358935
H         0.29582417114561       2.06066202663181      -2.45851955683802
H        -0.82912684125582      -2.97217381179748       2.26905545775379
H        -0.29330127802456      -4.05547682173849       0.97395601340309
H         2.17013107532957       0.02693709169924       2.26162508709515
H         4.66648497225929       1.63259600952110      -0.72698590014906
H         4.90336726093691      -1.12746698058461      -0.72748396200063
H        -0.77729889179228      -0.13138820159428      -1.90335689516070
H        -1.84375034110629       0.68808429150582      -0.74993824249008
H        -1.30491463094627      -2.50970603370050      -0.72215701268081
H        -1.92188348914464      -1.49292709580219       0.58876039582390
H        -2.80647958489205       2.05336451477485      -2.62026292586516
H        -1.73446729217526       1.22778902901719      -3.76464094332160
H        -2.99220916418461       0.31616651022936      -2.91595943834643
H        -3.68585334214951      -3.03322201452748      -0.22263677219488
H        -3.26813918247567      -3.42248931276982       1.45438171136386
H        -2.66005968750764      -4.43205237199662       0.13172030295977
C         2.08689595912416      -1.36834901236959      -3.90745136278880
C         1.65850350092948      -1.50301191231059      -2.42153383937729
O         0.49701001108738      -1.86862153809850      -2.19257556002354
O         2.54034453896871      -1.21100155534853      -1.57224668766096
H         2.93294902077485      -2.02836571667002      -4.09583380109691
H         1.26083946561517      -1.62872101656785      -4.56608715584207
H         2.39972011693980      -0.34122045796936      -4.09428001798613
