38
C10H20F3NO3S optimized with ADF in AMS.
N        -0.04284798894983       0.31571760762496      -0.44768515946306
C        -0.90087250945225       1.48153011446782      -0.92005570282115
C        -0.93630654412815      -0.91346318870648      -0.32276143515237
C        -2.07799607655089       1.76061611868948      -0.00234021597470
C        -2.14447171430525      -0.68039756682625       0.57329543401281
C         0.61022276171541       0.59351618714498       0.88642359441953
C         0.99405967641449       0.07221213438632      -1.53785153582838
C        -2.96770436116852       0.52175193525011       0.11260108330043
C         1.58977114965553       1.74963934888165       0.89449712897256
C         1.96919061966848      -1.05220650940904      -1.26190130000856
H        -1.27957408680439       1.17554317555208      -1.90990448257430
H        -0.23298416459746       2.34590310291070      -1.03703306982943
H        -0.30244084239751      -1.72429747696913       0.06240435819219
H        -1.24041503248446      -1.15563135215830      -1.35334231087181
H        -2.63986214126313       2.59494650564145      -0.45559017905751
H        -1.74788794700077       2.11202738193353       0.99238484376757
H        -1.84202953296120      -0.56780928026569       1.63003336298830
H        -2.74919908745760      -1.60164328923349       0.52340192178558
H        -0.20184383545962       0.77453913309825       1.59994658215281
H         1.10406071861066      -0.34374549777663       1.18139585768890
H         0.41041597649522      -0.17013718479408      -2.43990213492881
H         1.50696325636961       1.03305881285478      -1.68715479616146
H        -3.80018063449584       0.70590781999782       0.81034544616881
H        -3.39090019858101       0.30323497111536      -0.88203669024574
H         1.97331815350669       1.86049497464764       1.92027355143238
H         2.45182760781999       1.57690159261814       0.23551588746638
H         1.11558294876013       2.70135811216793       0.61720589032767
H         2.65214168561792      -1.10033695024189      -2.12449405874088
H         2.58309135743176      -0.90502886805865      -0.36110065687519
H         1.46262382682496      -2.02586714968088      -1.21148753970911
S        -1.91626640413715      -0.75347893405352      -4.10993914057806
O        -2.72482379726528      -1.51513168070719      -5.05532297521501
O        -0.74758872211449      -1.46144358035987      -3.52702887074646
O        -2.64752539659066       0.07227834055807      -3.11910874541869
C        -1.09018436159316       0.56225728435080      -5.17015792749918
F        -2.00568397079842       1.35883900976212      -5.77445553144001
F        -0.30216243105056       0.01698965609330      -6.13027535315956
F        -0.28572524918323       1.37750056889380      -4.40186117177647
