34
C8H15F2N3O4S2 optimized with DFTB in AMS.
N         0.11744436323549      -0.83271135977467       0.75630834794746
N         2.07216758457481      -0.04313789275056       0.32077459665085
C        -1.21219318080922      -0.99651999744899       1.33906402925989
C        -2.26884346067439      -0.18744851912426       0.58280931281507
C         0.92902045141494       0.20445575209237       0.95459452080651
C         0.75980201955612      -1.76094652783928      -0.01657935723827
C         3.23746727834374       0.83523625126288       0.32438518540358
C         1.99439304391750      -1.26386943589945      -0.29126645040204
C        -2.11632951160633       1.31870673503520       0.77996991549634
C         3.35992485735103       1.55154186837920      -1.01462308749710
H        -1.15446967205407      -0.68231696446821       2.38521283285757
H        -1.45165641853259      -2.06152867205738       1.29888708038513
H        -2.22524771785978      -0.43634778758022      -0.48224541214420
H        -3.24378103008193      -0.50347392594269       0.96439295690064
H         0.72674509922510       1.07365461599075       1.55617259281319
H         0.29869513827869      -2.69284258748955      -0.29307188645171
H         3.10854222098307       1.54807694347465       1.14109160503143
H         4.11801784773290       0.22057612424861       0.52702376584940
H         2.81433281023168      -1.67958604552101      -0.84984478131492
H        -1.19920370681578       1.68058508528387       0.31379980893366
H        -2.09232240576727       1.56226140368542       1.84231574369514
H        -2.95958773081666       1.83438071824299       0.32142163549870
H         3.48357707905706       0.83400047641090      -1.82539294759046
H         4.22803544861588       2.20833195850677      -0.98924971978519
H         2.46972114357339       2.15002642794054      -1.20662821261843
N         0.60776476829809      -0.38839418394089       3.78267025305390
S         0.08278013246990       0.99131825302956       4.37122127133633
S         2.17672054739234      -0.61284230826017       3.65302176746827
F         0.61926928127771       2.10285060349834       3.27651198425992
F         2.67834746619277      -0.92274738583033       5.14535493187925
O        -1.33192525668556       1.00285800254052       4.16658281591286
O         0.62593226023313       1.43029533083254       5.60814943478424
O         2.94469217873131       0.52572243140072       3.23751767063136
O         2.36123250431692      -1.83609464332817       2.93380648397164
