43
C13H24F3NO2 optimized with DFTB in AMS.
N        -0.96879923132849       0.57820391319687      -0.12967132649173
C        -1.61387746161646      -0.70780539227531      -0.54068133556185
C        -1.80430399465601       1.02721797895335       1.03725454076674
C         0.43810311413725       0.34433249892481       0.34758139333263
C        -1.99161301810055      -1.39421256881713       0.76848542467656
C        -2.19745963740865      -0.25113753767084       1.77345195782530
C        -1.02475395633523       1.56889719375675      -1.25115742651691
C         1.43322154445627      -0.15930756932994      -0.69009488209110
C        -0.40648823145026       2.91517809957882      -0.90581481242848
C         2.81009046661353      -0.22593637528102      -0.01116703263627
C         3.86701666041475      -0.80253008398622      -0.95522063280159
C         5.22809648029364      -0.88915779823414      -0.26640861414809
H        -2.50415785278210      -0.46022981645922      -1.12439190683525
H        -0.92846683725086      -1.28518135483544      -1.16014896411873
H        -1.22565235039938       1.70288257609963       1.66883176727839
H        -2.67911549737062       1.54648799814420       0.63899480259684
H         0.78792740974098       1.29466631553445       0.74706011181526
H         0.38035910639739      -0.36872306794362       1.17082049754422
H        -2.89746940549988      -1.98756526672321       0.63402565781909
H        -1.19312003005023      -2.06204307731094       1.09746269767280
H        -1.56589098364480      -0.38101804911726       2.65559507658265
H        -3.23665972917862      -0.18903039129555       2.09999872849636
H        -2.08082852962816       1.69689153894053      -1.50462617328936
H        -0.51707764596064       1.12016401184005      -2.10845107270935
H         1.48343343230466       0.51352189708815      -1.55120930671393
H         1.15394909041152      -1.15403124116055      -1.05083023935589
H        -0.84410148012054       3.33339101542720      -0.00160356285211
H         0.67006552709321       2.84242013683434      -0.76810830265592
H        -0.60171939729474       3.59658157185676      -1.73373747900925
H         2.73569579494648      -0.84200140927514       0.88986086542028
H         3.10144159057067       0.77977761220565       0.30607889950244
H         3.55960053228233      -1.80240345483836      -1.28240425335201
H         3.94703993423743      -0.16994032650372      -1.84663105330472
H         5.97293112777227      -1.28523396961934      -0.95702575899021
H         5.55082764715701       0.09915167908299       0.06337182830937
H         5.17330369267303      -1.54472222088260       0.60306675575658
C         0.97795018038031       1.11177882167879       3.18625780669376
O         1.74636544965983       0.18909552407711       2.95638918779500
O        -0.19972143081295       1.15744245185190       3.53058734800334
C         1.57547374081856       2.58562737898405       2.79713381483828
F         0.67407942809751       3.20085423599903       1.96487605694074
F         2.71356975908763       2.50834431867838       2.08090764789711
F         1.79731653444298       3.42888512092574       3.80869552709905
