55
C15H25F6N3O4S2 optimized with ForceField in AMS.
N         1.37764954954318       2.27541669411986       0.03641704472772
N        -0.82727841772420       2.42682199864081      -0.20959356714917
C         2.75444721019456       1.85717288853298      -0.21817678194631
C        -2.16218908151126       2.22246762181724      -0.76896191153929
C         3.02037246283889       0.45769348756178       0.35733342453252
C        -2.39760173319922       0.74105221156030      -1.10287454986682
C         2.08711737693284      -0.60135721765978      -0.25065435554425
C        -2.33686959432019      -0.14705448941193       0.14729826177457
C         0.34552747249360       2.17933806856285      -0.82396776769177
C         0.84145053985497       2.60527198658716       1.22867677464265
C        -0.52580448499750       2.70718293502936       1.07432066987194
C         2.43827747366712      -2.00762012418576       0.24441467593574
C        -2.55205560122240      -1.62020084600207      -0.21422542829553
C         1.45963793824786      -3.04124725668485      -0.30777240378178
C        -2.48256900497344      -2.50554287646013       1.02715419622189
H         3.45187810373196       2.58867035932149       0.24389752454856
H         2.95218827076997       1.85037957706342      -1.31275938286366
H        -2.26348931731988       2.83110255102165      -1.69282521549999
H        -2.93634660577141       2.56660574249481      -0.04858155016241
H         2.88946823339677       0.48078866741367       1.46138577654104
H         4.07680819211827       0.18605685709001       0.14227903588123
H        -3.39939908367780       0.63361085406957      -1.56903525542418
H        -1.64089477931062       0.40308157775238      -1.84418736025878
H         2.16371196525383      -0.57111262711692      -1.35996173421481
H         1.03807666315457      -0.37648510122407       0.03746935620419
H        -3.12062818695666       0.17744409279724       0.86672965204967
H        -1.34461823022428      -0.03970204444523       0.63548885818433
H         0.43821706474593       1.84881189363922      -1.85130614613282
H         1.39383251689395       2.69821409552983       2.15469835582789
H        -1.24931117477988       2.89454949903388       1.85698730258462
H         2.40039125468234      -2.03496828940880       1.35539218941798
H         3.46748931307152      -2.27287358128014      -0.08134049498990
H        -3.54665909365726      -1.74830551762346      -0.69443399304131
H        -1.77001175017574      -1.94592819066733      -0.93452284187249
H         1.48405322381545      -3.04376701259160      -1.41833179543450
H         0.42827666548500      -2.81358412386649       0.03236253676196
H         1.73618782841365      -4.05219600782132       0.05814498280985
H        -3.30423074953735      -2.24799273136997       1.72867604619032
H        -1.50825884992519      -2.37423740394622       1.54449260407810
H        -2.58625336667516      -3.57082646176548       0.73173076629896
N        -4.61981506413323       2.37442367668834      -3.12322234269701
S        -4.75156722075688       2.02621898651220      -4.71797116321825
S        -5.66319194304745       3.35566314272759      -2.32806338449981
C        -3.73041965946503       3.15495095578428      -5.64049218368319
C        -6.85621599537035       2.35391084781965      -1.46800843179785
O        -4.26581194821086       0.62505823077527      -4.95763721018629
O        -6.17907977896236       2.14775035083615      -5.17409833619549
O        -6.37077280708043       4.27349423941118      -3.28577159553885
O        -4.90321696019560       4.17176688881620      -1.32178510908939
F        -3.82399042979868       2.86779877699777      -6.98878779498670
F        -2.41592749009411       3.02465555171909      -5.23367509103398
F        -4.15194293146344       4.45161725983408      -5.41696285139093
F        -7.73071253052744       3.16923482746838      -0.77529758736930
F        -6.20397995061194       1.52019607719493      -0.57904837936140
F        -7.56276213352901       1.59078548470688      -2.37773357832750
