56
C16H34BF4N optimized with ADF in AMS.
N         0.04576184801492       1.87437068428197      -0.06757060391109
C        -0.60555990292374       2.87340413900119      -1.03577207306056
C         0.71636148362813       2.74008528652636       0.99381441616959
C        -1.01630824880345       0.99969746455855       0.60558793681487
C         1.08005528435481       1.01526126853548      -0.79324222054958
C        -0.17105952746319       4.25770236495700      -0.56935949758687
C        -0.02376089862435       4.06282801365477       0.94017066174740
C        -1.99648153957411       0.32694396241994      -0.33608387626821
C         2.02816203706233       0.26042685565089       0.11809204096253
C        -2.85766168847107      -0.67030848698421       0.44828027822372
C         2.89658461791415      -0.69747979497816      -0.70380051923391
C        -3.66909242963804      -1.57086703415959      -0.47955537399982
C         3.82060249916172      -1.52372841134156       0.18831225961981
C        -4.35826998846502      -2.70637515538340       0.27249486254597
C         4.55491450393030      -2.61374830535634      -0.58759399645596
C        -5.15034474009725      -3.62346062657922      -0.65518438018738
C         5.45547909608682      -3.46293566848617       0.30551999568165
H        -0.31653647593777       2.61234722423971      -2.06124824330505
H        -1.69023368599058       2.75587251212151      -0.93934584687811
H         0.69825721936574       2.20551095484691       1.95119752894883
H         1.76111165360555       2.88198400901943       0.68303818580069
H        -0.46503503878683       0.22307659019336       1.15805791463649
H        -1.53231377710312       1.66013506798930       1.32137099968139
H         0.51043569421893       0.29990153095829      -1.40434035849806
H         1.62466625901572       1.70943427865147      -1.45505097712799
H         0.79946949898359       4.54108199808043      -1.00959257490487
H        -0.90884892580744       5.02413722206759      -0.84932984880483
H        -1.01266232139706       3.98694242461478       1.42290678195036
H         0.53862050831191       4.86554954739476       1.43914072634366
H        -2.64778767217364       1.05327913522326      -0.85238043061413
H        -1.44294985674089      -0.25199915839209      -1.09064216429483
H         2.67654171575919       0.95241546495804       0.68394914278306
H         1.45829968591908      -0.35317109540739       0.83344334357008
H        -2.18971416807912      -1.30890777494158       1.04910613775724
H        -3.52695910146872      -0.13413835801747       1.14829932660588
H         3.48985425523592      -0.13878256233855      -1.45385503686413
H         2.22637940886210      -1.38712413006421      -1.24425903752356
H        -4.41485822570228      -0.97609444995095      -1.04259056566832
H        -2.97480571342324      -2.01467179032939      -1.21606983671136
H         4.55111816488730      -0.86427243106041       0.69612864960069
H         3.20542340338070      -2.00584583953137       0.96820893521310
H        -5.02495892936187      -2.29038611508617       1.05064094799320
H        -3.57754875976426      -3.29054788044861       0.78841839305269
H         3.79884461667784      -3.26101509230744      -1.06471381695315
H         5.15225584583919      -2.15810292593495      -1.39923555393729
H        -5.95874661306531      -3.07529842074232      -1.16773550899454
H        -5.60380112301096      -4.45816184819807      -0.09985890676425
H        -4.49027497063368      -4.05197819668695      -1.42690988416663
H         4.86048530643830      -3.95839811840101       1.08925404869538
H         5.97035869588963      -4.24460545395029      -0.27343053793543
H         6.22318868876998      -2.84597833428547       0.80158314806433
B         0.05210095833449      -2.80644535696388       0.32220222651647
F         1.24941640901504      -3.54157993962234       0.24373943330890
F        -1.07335319306985      -3.63304166245444       0.48610675041871
F        -0.09981696006258      -2.01635325291359      -0.87694287319806
F         0.12915797597599      -1.88589879614744       1.44057722969131
