40
C10H22F6NP optimized with ForceField in AMS.
N        -0.88177505915372      -0.16658281157278       0.05053484056166
C        -2.01537353131182      -0.28293334658053      -0.91762718570467
C        -1.21678908257374       1.01936962386258       0.89796638913101
C         0.39241316365106       0.07769544135309      -0.70172011513155
C        -2.84641404609416       0.98210157179182      -0.83118223785707
C        -2.63736279217877       1.44793532291361       0.58131640200108
C        -0.80937162283939      -1.39193908051614       0.91087422654115
C         1.65473117726066       0.19214157548136       0.18814264713369
C        -0.45931247702375      -2.68587949061015       0.15277880671921
C         2.86656852560248       0.63441306022563      -0.64160477134844
C         4.11819809354680       0.75713869524448       0.22254371597920
H        -2.69507157812973      -1.13074522589839      -0.66996797598091
H        -1.68263783509682      -0.44562704029222      -1.96834648256953
H        -1.11847769050853       0.82149388491755       1.99002034389626
H        -0.56134164729709       1.89339187071582       0.67915121103919
H         0.56649674698020      -0.72996904373824      -1.44687445329367
H         0.29485412198975       1.01415774301692      -1.29889347702944
H        -2.45488103876511       1.74185490621308      -1.54336868461558
H        -3.92141467328533       0.79008353192782      -1.04139823787281
H        -3.34925601324733       0.92815502800686       1.26004634956740
H        -2.77083871466524       2.54835501360682       0.67020411183199
H        -0.06721620415919      -1.25832252104106       1.72797737197920
H        -1.78556723836987      -1.55196710763080       1.42401410589424
H         1.49326760163137       0.92306901633156       1.00765824377187
H         1.88824186770976      -0.79274734342387       0.64371307521862
H        -0.56290962726440      -3.55025968996904       0.84171984795669
H         0.58982769240634      -2.67154124708788      -0.20520862504780
H        -1.13682319653521      -2.85285294425521      -0.70882872000210
H         3.05780138195942      -0.10801642556834      -1.44659489119693
H         2.66140344766062       1.61999830781249      -1.11318208953159
H         4.34182716011430      -0.20990157777324       0.71962912714938
H         3.97799525180463       1.54201937315144       0.99562877534369
H         4.98257395018441       1.03727878896372      -0.41563283667664
P         7.62114175550992      -2.12493316076370      -0.26997796694646
F         8.06102978615047      -1.52607323923848       1.27923593124614
F         7.86507642981954      -3.74575130845268       0.24539834359323
F         5.98488324943787      -2.26924106966386       0.23241600334838
F         7.15588683591004      -2.61921543612209      -1.84831845042192
F         7.39962447493025      -0.49270529646605      -0.75835134274142
F         9.26410782583932      -2.10755350797192      -0.77238282983475
