44
C12H26BF4N optimized with ForceField in AMS.
N         0.96355601737028      -0.30861883350335      -0.00227721111681
C         2.02641397873139       0.07307349722096      -0.98251573106501
C         1.64052677801735      -1.22959283508188       0.96238543368556
C         0.47529735242889       0.90583386821572       0.72947078332786
C        -0.13712770373262      -1.02849561271861      -0.72232569520258
C         3.23360329703546      -0.81054064887217      -0.74308615574524
C         3.13505595929839      -1.16265284063378       0.71378794985939
C        -0.26674763561476       1.93617275959031      -0.15575201132726
C        -1.32026115354031      -1.46419286897262       0.17471755402656
C        -0.57503259380588       3.21080457826574       0.63951418784272
C        -2.31732636283791      -2.31205985928037      -0.62542557196687
C        -1.30883609031131       4.23748194544420      -0.21782180278118
C        -3.49930949674852      -2.74601643373944       0.23569791340578
H         2.36732095970843       1.12520552984391      -0.84786844472542
H         1.70221493104995      -0.01506480970502      -2.04477734693476
H         1.33715883880062      -2.29140484159138       0.81514597207085
H         1.42469805338430      -0.98941501291905       2.02852938091387
H        -0.19917921155332       0.61431010087124       1.56438992953529
H         1.33836127270455       1.41663576931873       1.21719487167443
H        -0.53931314733526      -0.40010658110912      -1.54734051203490
H         0.27760228994829      -1.93509412506669      -1.22195982551201
H         3.16049166371777      -1.73227030533996      -1.36206416156938
H         4.17921676974145      -0.27819234408318      -0.97340522516136
H         3.58643084284892      -0.35374008791915       1.33061870280740
H         3.63899096928808      -2.12862195595658       0.93637374791014
H         0.34551617314096       2.20495904403206      -1.04177833901460
H        -1.22745440952413       1.51053396246128      -0.51282957921099
H        -0.95702349148267      -2.05577186726804       1.04101612062648
H        -1.85683749426077      -0.57267441212588       0.56045967096790
H         0.37196129135708       3.66284611333353       1.00683417443374
H        -1.20812819046325       2.95762960798762       1.51756484593885
H        -2.69944211359935      -1.72238267333481      -1.48699134681489
H        -1.80852687271355      -3.21917885402109      -1.01822249609297
H        -2.26728057707591       3.81697624994394      -0.59008348554757
H        -0.67952733173236       4.53895876976732      -1.08202094501041
H        -1.53039506847719       5.13953831094704       0.39149208871731
H        -4.03677141426352      -1.85820129754104       0.63181028319011
H        -3.14982788145557      -3.37322121735096       1.08303398604269
H        -4.20639814377867      -3.34257155816618      -0.37945228884720
B         7.09455390337390      -0.47022431569507      -0.32244121063122
F         8.50782996424940      -0.60426297138415      -0.30026712613565
F         6.71820678915174       0.38329617644751      -1.39367062452330
F         6.65125898976799       0.08825011206166       0.90597700949880
F         6.50057745359167      -1.74789349257319      -0.50269352750415
