43
C13H27NO2 optimized with ADF in AMS.
N        -0.13759855447582       0.21712313148917       0.08882641213544
C        -0.81450402850304      -0.47692907073353      -1.06633864082168
C        -1.28478595358155       0.38877013127579       1.05398452863106
C         0.92664136351649      -0.67085486847808       0.74326661032653
C        -1.68451714856697      -1.53926960117351      -0.41014706608441
C        -2.10940953556686      -0.90194050171682       0.93861575610850
C         0.46348485560590       1.54141548496235      -0.35719528561077
C         1.85290423837953      -1.38244748068879      -0.22337179480869
C         0.72906246682665       2.52359689643600       0.77068276920475
C         2.94994173982136      -2.09844020311447       0.57629006879375
C         1.35600299569865       3.78525050687623       0.17207961287905
C         4.04573874691441      -2.64581326328884      -0.33421645121182
H        -1.43061396016535       0.28871265465005      -1.56134050180221
H        -0.05906906750653      -0.84030838969751      -1.77170082101157
H        -0.88138420349823       0.59179769489927       2.05296386708961
H        -1.85449342059834       1.26455689607901       0.71127687762397
H         0.38885968611254      -1.38006472606553       1.39075371800664
H         1.55584091282949       0.01507612639245       1.34369397566337
H        -2.54247785828295      -1.79097485244666      -1.04898298441811
H        -1.11007839615618      -2.46249684321503      -0.24421154947321
H        -1.91219849995931      -1.58379972385925       1.77753427748898
H        -3.18185669233248      -0.66115246062727       0.96000862822939
H         1.44280071123062       1.30700013809907      -0.82901435429474
H        -0.24367239367017       1.95982373001562      -1.09327324124545
H         1.32364754952114      -2.11998275380479      -0.85340271204335
H         2.34378043610553      -0.62256394657278      -0.85901183115376
H        -0.19334825339971       2.78382862243929       1.31819432103248
H         1.46449039568300       2.07429921087977       1.46007663849799
H         3.38790451727695      -1.36789448719249       1.27715705720822
H         2.50603209225407      -2.91664906289313       1.17484488429469
H         2.26819556376921       3.51419183590536      -0.38045422740559
H         0.66306597621277       4.29533236758349      -0.51703486896077
H         1.62922406385528       4.49184789871939       0.96882132728115
H         4.82775535833710      -3.15489380607380       0.24997200465537
H         3.64285887859773      -3.36798927722688      -1.06408770968500
H         4.51681666303449      -1.82160673641889      -0.89262447732145
C         5.43160862798939       1.66596120452447       0.41461191588904
C         3.94576593720421       1.28753990257375       0.34190691256673
O         3.43629934175494       1.25330183485193      -0.82337890278006
O         3.36325127585744       1.02753758391887       1.44134182323021
H         6.03433361615725       0.82943529877906       0.02549472144390
H         5.63555474446803       2.53340806983376      -0.23074068679405
H         5.74245714134932       1.87602712530390       1.44697174534590
