40
C12H22F3NO2 optimized with DFTB in AMS.
N         0.05704687437310       0.22505555684354      -0.19050153021042
C        -0.80097833033369       0.71018003144681      -1.33375139149011
C         0.20853801803071       1.42092014960405       0.71082488072780
C         1.39444117397266      -0.20233169943635      -0.72249901356583
C        -1.50565151932517       1.98487888324409      -0.86618328203746
C        -1.10797047212192       2.16866104328225       0.59815108616889
C        -0.62972962479813      -0.86997121300465       0.56873327480836
C         2.39198636947413      -0.61101029393757       0.35686954674045
C        -0.74316482998074      -2.18980066071573      -0.18201755824088
C         3.79701170951020      -0.65384752061966      -0.25850710350456
C         4.83726884864211      -1.08244937469883       0.77268785312581
H        -1.49680409539657      -0.07824146822751      -1.61974242646841
H        -0.13878206042192       0.93321192815362      -2.17085629671324
H         0.43386053091400       1.09197563353838       1.72482480616735
H         1.03854174263844       2.01587635201506       0.32077047770686
H         1.22542788466268      -1.01416344828106      -1.43286201963165
H         1.78616695662848       0.66175154132721      -1.26086705006020
H        -1.13885467466141       2.82539569509531      -1.45912279869948
H        -2.58747713330253       1.90861165492069      -0.98537739012072
H        -1.86104938957784       1.74561399308449       1.26940065235955
H        -0.97191641817678       3.22087135141372       0.85004199315816
H        -0.06890441644510      -1.02489908128264       1.49353436154449
H        -1.62537858219436      -0.49967874837629       0.82479114257464
H         2.39112612495982       0.12398938519117       1.16481123698448
H         2.13353963929375      -1.58744702887789       0.77927313248686
H        -1.38227200491781      -2.85141494938457       0.40233632775906
H         0.22772387568372      -2.66835458603432      -0.29580849145737
H        -1.19159056142512      -2.06309164448782      -1.16574977023670
H         3.80651044474311      -1.34974175180225      -1.10405078435960
H         4.03914889618788       0.34522361474246      -0.63405381287543
H         4.61238171855881      -2.07885813354660       1.15725299336263
H         4.85590231570621      -0.38233672401070       1.60858766953074
H         5.82590256110048      -1.10178652319373       0.31499151153081
C         2.25409367319099       3.01643735953354      -1.55265138181683
O         2.84549645917799       2.46594618583990      -0.61900923063705
O         1.14304607830168       2.77147198800341      -2.03307874728263
C         3.03385042238456       4.23728439358631      -2.22568594661437
F         4.35677495777243       4.01838260992209      -2.29461063089481
F         2.85906628571418       5.37007860215085      -1.51710436205384
F         2.61226986765701       4.48862316697930      -3.47403362896532
