27
C7H13BF4N2 optimized with DFTB in AMS.
N         0.31673451285207      -0.82768064261261      -0.44042658050285
N        -1.74837858435130      -0.22982830561994      -0.47069122879095
C         1.70683482289444      -0.99055054392159      -0.85505873598259
C         2.66177798488291      -0.47603571076157       0.21963440799504
C        -0.55655951569934      -0.01829233736728      -1.02705891373821
C        -0.32934507620056      -1.58437636568791       0.49953019655423
C        -1.63531661163528      -1.20882681672257       0.47867852750507
C         2.49861622517167       1.02507519130337       0.45325333330772
C        -2.98469835871556       0.34471074207067      -0.97375566594265
H         1.82690333490319      -0.44358700135933      -1.79328974378830
H         1.86241760417521      -2.05431899950694      -1.05103041565976
H         2.49077116488566      -1.01717410913687       1.15566243793881
H         3.68213138018598      -0.68774033522439      -0.11097994762600
H        -0.34005363735800       0.66368799949223      -1.83176588161694
H         0.17903651229544      -2.32707007035426       1.08878448177794
H        -2.47887540313824      -1.55533014971049       1.04953163698320
H         1.48492495750391       1.25226923756862       0.78673126076049
H         2.69341181356567       1.57694340463910      -0.46668148253625
H         3.19895107621376       1.36169098744454       1.21700433699594
H        -2.93675582647546       1.43153912127650      -0.90660241639391
H        -3.08848541063566       0.04233601188625      -2.01809949354115
H        -3.81851883335932      -0.02977187397380      -0.38402053333445
B        -0.24875081783930      -1.19747732666941      -3.67382522202750
F        -0.29379918765703      -1.61831232240698      -4.97026517297285
F         0.61692882679312      -0.07687080024854      -3.51676480291615
F         0.20840215600218      -2.20248311269138      -2.80255471078683
F        -1.53559453836018      -0.77913587780542      -3.22049860876108
