36
C8H18F2N2O4S2 optimized with DFTB in AMS.
N        -0.19610443799243       0.51503666871880      -0.22889459950109
C        -0.94064413514516       0.70290162804232      -1.51765561003350
C        -0.69951970927920      -0.79286223999553       0.29202836770735
C        -2.33016315451734       0.12068300879961      -1.27489964158939
C        -2.18128035214119      -0.82968537692269      -0.07602525143471
C         1.28142518090471       0.47834493597174      -0.49907670870630
C        -0.54714307231664       1.61636012423370       0.70808690593231
C         2.14377235329196       0.32792092207561       0.75139200234581
C         3.60461195236848       0.15954097106054       0.33327900523859
H        -0.40663181260069       0.15222516536609      -2.29409548883644
H        -0.95649645698207       1.76045288376067      -1.77779452434546
H        -0.51897177522818      -0.85547138064765       1.36505483867927
H        -0.14884686030590      -1.58761777379933      -0.21594914445077
H        -2.67451638963923      -0.40918781202996      -2.16424896679021
H        -3.04921007179744       0.91147927609246      -1.05306983004550
H        -2.79568126116570      -0.49523317734661       0.76230431017794
H        -2.47940018464583      -1.84835146366991      -0.32911970517628
H         1.53038158454055       1.40228986528992      -1.02179875351309
H         1.45289069492477      -0.35974345434323      -1.18019809117682
H        -0.18723249016528       2.55577235997803       0.28677442802291
H        -1.62777822026126       1.65177677713521       0.82413754385414
H        -0.07901232003198       1.43684431716635       1.67247439489771
H         2.05830217682071       1.21953404578800       1.37664352109449
H         1.82192835251917      -0.54007845747665       1.33513266465708
H         4.22873459653931       0.06797260197490       1.22110250408431
H         3.73068077546225      -0.73451296628936      -0.27875058023479
H         3.93324414759879       1.02691858336305      -0.23827049133329
N         0.72625489565996       3.89299596253456      -1.03125707136979
S         0.58996920334726       3.82440365626761      -2.61051741396592
S         2.19373585631026       3.88853617148439      -0.40570700069257
F         1.12032797317531       2.29216605379102      -2.94600375082554
F         2.65925451111079       5.41924337938986      -0.48854964516718
O        -0.80734014007875       3.73372829017523      -2.89829872405102
O         1.42641898850030       4.66322628458607      -3.39332612888316
O         3.19324298208042       3.15451877776511      -1.11750570376567
O         2.03076205553927       3.62616063421007       0.99323038849657
