51
C13H24F6N2O4S2 optimized with ADF in AMS.
N         3.11497036793049      -0.16015213051028       0.32880429806853
C         2.53421497185017      -1.25100269841146       1.20067116418222
C         4.38161726261246      -0.81707762992257      -0.19932023915134
C         2.19946478338900       0.22343173008870      -0.81648027965924
C         3.73668062776806      -1.84668180239843       1.93186827302955
C         4.94504475532355      -1.59154753568659       0.99090763534966
C         3.46073495753996       1.04639276772918       1.15591377670350
C         0.85385124926477       0.77938190136737      -0.38278810476825
C         0.01820593623244       1.16353881076837      -1.60682267332191
C        -1.30971159654695       1.81786506655702      -1.23045125095809
C        -2.10417845739932       2.26758577386135      -2.45553985565958
C        -3.43473302433706       2.92231691972852      -2.09490168917781
H         2.07816298680138      -1.97913019160780       0.51240752044174
H         1.75853996986654      -0.83095351594329       1.85213012405719
H         5.04674924422808      -0.04559156520249      -0.60330362691618
H         4.05281780785786      -1.48470880436950      -1.00909473906445
H         2.06817307348066      -0.69445478301218      -1.41218462583927
H         2.76903177411446       0.94590022205778      -1.42170830013679
H         3.56953303681086      -2.91533030261434       2.12891698340367
H         3.88359279388714      -1.35744669887597       2.90583231480694
H         5.72971842679162      -1.00836456319425       1.49373977293931
H         5.40819830106135      -2.52619353544771       0.64529238843132
H         2.57261229924629       1.35286439962667       1.71858186516321
H         4.27632312999347       0.79021283983442       1.84008375862053
H         3.79229478767672       1.85723519059564       0.49693544402008
H         0.29963667934571       0.03812040742274       0.21955256710356
H         0.99283394348641       1.68037687356301       0.23398753518563
H        -0.17164682874444       0.26833085512783      -2.22766877467594
H         0.59817700311550       1.86435332473534      -2.22839395273151
H        -1.11122482436115       2.69464159084268      -0.58584428444603
H        -1.91920133820602       1.11534353032789      -0.63078161049784
H        -1.48814830767063       2.97602784444099      -3.03811591003719
H        -2.28291918602194       1.39644723098724      -3.11195591621023
H        -3.27718247712300       3.81208425111579      -1.46428776180313
H        -3.98026033074774       3.24115748861605      -2.99590010903024
H        -4.08091957430804       2.22499895319850      -1.53745446769227
N         5.12585824614366       3.72561591879620      -0.68730883850235
S         4.37067853130485       4.87395174364315      -1.54932219847368
S         5.80706699948680       2.43510649864331      -1.34951778945434
C         2.59016073931352       4.24797748641001      -1.68567790870755
C         7.28250607123380       2.99576515668762      -2.42501464517365
O         4.22564259641309       6.03531197183147      -0.68871714153247
O         4.80701045122266       4.99895540849340      -2.93273368546005
O         4.95241258972299       1.66882783949559      -2.27016685851170
O         6.43507295157263       1.68981115783891      -0.25229403803900
F         1.77015431798910       5.25295252126302      -2.06622150322814
F         2.13935775081718       3.77548866568823      -0.48187277494088
F         2.47648574612651       3.24523347666773      -2.59242982763861
F         8.20631634350692       2.00141611148379      -2.41448836144778
F         7.84301697831094       4.11313617320440      -1.91899064956664
F         6.91294174182673       3.21529886115695      -3.69812612415249
