40
C12H22F3NO2 optimized with ADF in AMS.
N         0.00813234861810       0.17116152348653      -0.17105461506195
C        -0.78048889986573       0.88038050602969      -1.26782615447928
C        -0.55944311281279      -1.23342225602220      -0.00445639843911
C         1.44288673588441       0.08368563427311      -0.67133389576494
C        -2.27619091131929       0.89483914031755      -1.00952712841454
C        -2.05540617559719      -1.24479344308333       0.26816602620912
C        -0.07140191165933       0.89403285563191       1.15577672796910
C        -2.80850076486708      -0.52910154080242      -0.85096469127380
C         2.42215251962938      -0.63118875567441       0.24211002604671
C         0.53759861509863       2.28208451268168       1.17802400274624
C         3.77557930734110      -0.73382166953129      -0.46633470945747
H        -0.53795911616789       0.31843044890913      -2.19373954804629
H        -0.35705965522159       1.89073592291134      -1.35479522953925
H         0.00589095995298      -1.70946676165603       0.80697543802525
H        -0.38066607112765      -1.75554402926848      -0.96166046466254
H         1.76240296140061       1.12153995137819      -0.85191507351690
H         1.37583033417580      -0.40603205423019      -1.65880949068166
H        -2.74110342184799       1.38545822233132      -1.88175328885768
H        -2.53409706003711       1.51406146881679      -0.13022176049865
H        -2.30023886632605      -0.81410193122631       1.25566216260767
H        -2.34900181014758      -2.30717922159541       0.30655642546406
H        -1.13407588680475       0.94002326257541       1.42215607731074
H         0.42397376560082       0.23674844337405       1.88549174888473
H        -3.89124913613758      -0.52076332618166      -0.64860603532583
H        -2.63059808790024      -1.08438128542518      -1.78919556984092
H         2.54218770057779      -0.09943076413834       1.20249072643295
H         2.06637071236830      -1.64924034516933       0.46559684843420
H         0.38695627271037       2.70201040736606       2.18444390829038
H         1.61895200454972       2.27022983657933       0.98374880972276
H         0.05384519193337       2.96296593797912       0.46403942452114
H         4.51255300850693      -1.23678392757224       0.17613472837946
H         3.67792043803018      -1.31084646334293      -1.39785442744596
H         4.16940045269363       0.26273674523281      -0.72021643876451
C         0.27356963397343      -2.02164243369274      -3.33239464322753
O         0.62385979108085      -0.82146085586769      -3.48742906033310
O        -0.74436743997758      -2.51012581411426      -2.79005874190405
C         1.35248410243433      -3.05642400186215      -3.79003594424191
F         2.33689801774601      -3.13074211575364      -2.81128575719116
F         1.98215821267493      -2.71134468132773      -4.94884479893335
F         0.87160725613575      -4.31786319993604      -3.95015070304216
