41
C11H24BF4N optimized with ForceField in AMS.
N         2.02043427948068       0.39517687935236       0.06657518255788
C         2.23966660907259      -0.91871580339237       0.72980607663550
C         3.13063951900569       0.53634905742345      -0.92440396019783
C         0.70799280530545       0.43691321596951      -0.64904196721821
C         3.67477703023159      -1.33019000780491       0.47147550499636
C         3.98361389334498      -0.72183858554294      -0.87066925659794
C         2.10956548298353       1.49352183660044       1.06237494019667
C        -0.53290141587781       0.27417684413330       0.26116194816427
C        -1.80215416629590       0.11820476546945      -0.58670473696022
C        -3.04578272127839      -0.06356845705581       0.29149291204824
C        -4.30771881897539      -0.18142424700171      -0.57265904511966
C        -5.55525655656259      -0.36230049556237       0.28623192813859
H         1.58655917976321      -1.71102422542302       0.29644704824233
H         2.03699298088928      -0.89322610603909       1.82524481942943
H         3.78754046279340       1.41145596321431      -0.70801938161116
H         2.77086627336194       0.68681877087265      -1.96887642892008
H         0.68418163622562      -0.36647802204541      -1.42220797742500
H         0.60706249016713       1.40304005001036      -1.19546052350902
H         3.79187284905158      -2.43589247892540       0.45704865365143
H         4.34051744807623      -0.89212389879278       1.24754559879465
H         5.06687115947580      -0.49436578389458      -0.97585550892878
H         3.67245963337431      -1.42124515221074      -1.67849253426186
H         1.37316146662521       1.36446372571022       1.88381370890392
H         3.11599024076762       1.51959899779861       1.53876294581807
H         1.93135839572958       2.47923521079675       0.57893374604662
H        -0.42471665785024      -0.61604026854995       0.91582966669058
H        -0.65084739177077       1.17351333060952       0.90199182181124
H        -1.69529534199188      -0.76739986140727      -1.25147725407014
H        -1.92874565750757       1.02292637727682      -1.22199847019383
H        -3.14704079660161       0.80815248329615       0.97508359132901
H        -2.93159699363939      -0.98464900962407       0.90510146436165
H        -4.42641185228076       0.73693348954981      -1.18829611476994
H        -4.21319006079068      -1.05299363055749      -1.25683439575340
H        -5.68652847180442       0.50742887325169       0.96491539917888
H        -6.44871425392297      -0.43836937105997      -0.36935630932601
H        -5.47754414391974      -1.29203249648056       0.88931997004793
B         0.36154666600957       4.54211509272638       2.75096994349330
F         0.35647151451568       5.96068063446703       2.81882448179289
F        -0.05756891457256       4.12908534596486       1.45826533303154
F        -0.52784498689474       4.01771149656934       3.72605413781489
F         1.67464016258678       4.06255302810741       3.00195404688723
