40
C10H22F6NP optimized with DFTB in AMS.
N         0.24968035094181      -0.71265141053699      -0.08016437822911
C        -0.35206198683708      -1.49888711631689      -1.22216865535420
C        -0.73888233350551      -0.81450952749009       1.06658574348546
C        -1.83872413663292      -1.58367242159798      -0.91948058331532
C        -1.85634008854344      -1.73718817204708       0.59683934116862
C         0.39913857394589       0.71590778144058      -0.50927650659421
C         1.56136828094601      -1.31624939374574       0.33859099655304
C         1.05013977670691       1.62340668351727       0.53512149230552
C         2.62665989702544      -1.32785436635906      -0.75431791988869
C         0.93722390621747       3.08099023959272       0.08934682120430
C         3.85282671312044      -2.08031067110526      -0.23576366905032
H        -0.12156325223023      -1.00778574276115      -2.16729388664468
H         0.08720049632593      -2.49632641054102      -1.20982210294495
H        -0.22537616262978      -1.20192444243012       1.94532366684448
H        -1.12005553732527       0.18476986225255       1.28303385244410
H        -2.35644287373365      -0.67153625342846      -1.23061209375156
H        -2.28758856623176      -2.43864284338501      -1.42520903031653
H        -1.63497186359270      -2.76936439789970       0.87493203320943
H        -2.81159224167746      -1.44623025073757       1.03469000569748
H         0.99485103961578       0.72564762045775      -1.42511985833281
H        -0.60493009383085       1.07670323670048      -0.74955053076850
H         1.91376650500467      -0.76190828174625       1.21054546348609
H         1.34371755289610      -2.33869985386841       0.64608598804645
H         0.56438407419097       1.50328268819153       1.50655364385636
H         2.10593470168927       1.36652065809215       0.65008495321560
H         2.91335675557927      -0.30884125927328      -1.03250460724936
H         2.24550915744574      -1.83053097759552      -1.64695694574959
H         1.42965010601974       3.22630248574271      -0.87261128326829
H        -0.10880769879124       3.37410464522043      -0.00543825344726
H         1.41438988647854       3.72653497775437       0.82564484502869
H         4.28680803767362      -1.55840636570460       0.61776813258440
H         3.57302385630364      -3.08548453604365       0.07843774275105
H         4.60390376200318      -2.15104364039818      -1.02164028551551
P         0.50378315190417      -4.76541162582407       1.58750621831869
F         0.86181434862794      -5.36999330417892       3.04975662935954
F        -1.09157344511666      -5.07795516898342       1.78440318431406
F         0.25498564527337      -3.24370702132541       2.27889755074160
F         0.14554848332693      -4.07084501007274       0.08499924191295
F         2.08654096834903      -4.33448089019993       1.33988344581551
F         0.74846456856667      -6.19583182156604       0.86087089697746
