35
C9H20BF4N optimized with DFTB in AMS.
N         0.35128469051350       0.43584469675360      -0.04799648768968
C        -0.38497479052060       1.43188889848306      -0.90332370555198
C        -0.37798088165661      -0.86929424794876      -0.03430486944443
C         1.70433527690880       0.25025990790361      -0.68879998992332
C        -1.84367143568091       1.59881570584677      -0.50541306375450
C        -1.83139973264245      -0.72661722290746       0.40380199306391
C        -2.57337205832929       0.25668306267555      -0.50022374373516
C         0.51937738093682       0.97896236274471       1.32776704319453
C         2.66494788125316      -0.67866618801927       0.04737405754307
C         4.03526890958412      -0.57370165665388      -0.62411907033560
H        -0.31376112907375       1.07680538995673      -1.93418590654996
H         0.15226057706818       2.37951862549595      -0.82237044804331
H         0.15812902136261      -1.54308205187199       0.63735042255580
H        -0.33233401158485      -1.27101075523792      -1.05062551423707
H         2.14769388135394       1.24403628231494      -0.75973407188888
H         1.52631782371566      -0.12304798142457      -1.70040372797123
H        -2.30417212250580       2.26908816893906      -1.23564082468120
H        -1.92687522092692       2.07391770568342       0.47568605983293
H        -1.88501287948058      -0.39629728564596       1.44480253939141
H        -2.29431042431619      -1.71522461418297       0.34340589424297
H        -3.59641775534271       0.38883847904837      -0.14021298224437
H        -2.61832020434920      -0.14428810979799      -1.51807954283473
H         0.95792886238983       0.21667840746738       1.96687722676032
H         1.16844076165226       1.85208333884505       1.26743183327001
H        -0.44775683333865       1.27107897101210       1.72768176484265
H         2.76559060545077      -0.38172490394490       1.09407033894676
H         2.31269770470634      -1.71507403100062       0.01790120923347
H         3.97394821597861      -0.87435484491881      -1.67057849562784
H         4.39079780730208       0.45564528207474      -0.57580674738663
H         4.74771047056892      -1.22134415394540      -0.11390763554211
B         2.54089799007373       3.48071940613544      -0.88802823951033
F         1.61300202435770       3.44988845746883       0.20396841289085
F         3.59671547407546       2.60958606545331      -0.55869064635317
F         2.96735760631947       4.74969340817841      -1.13618835622594
F         1.84913172387658       2.92529254641947      -1.99635381393723
