29
C9H17ClN2 optimized with DFTB in AMS.
N         1.14995657673415       0.60334679268382       0.74883739348391
N        -0.79130695445033       0.98509174216054      -0.11037949631665
C         2.41015046751161      -0.04822234488089       1.09249663028749
C        -1.96673597082006       0.81076662422325      -0.95372352116173
C         0.15191256584313       0.05349008432248       0.05422225393341
C         3.32594308937517      -0.18868714952518      -0.13745012194635
C        -3.16686483595961       0.31192701301958      -0.14763004284402
C         0.88157843732772       1.93811859252007       0.93631123673584
C        -0.33952039684439       2.17537708292763       0.39785690992527
C         3.28149799038335      -1.59178044013476      -0.73601013205631
C        -2.93717926945068      -1.07206021592251       0.45551420819641
H         2.17849473956749      -1.02611915599523       1.52607541841741
H         2.88500949020674       0.56801633263263       1.86033651634728
H        -1.68531311371632       0.10608564427324      -1.74282499394318
H        -2.19508060664676       1.77828465703428      -1.40683722262915
H         0.05487839047067      -0.98974813314469      -0.17899093151788
H         3.02284508599571       0.53674565738809      -0.89639764533919
H         4.34894180944034       0.04603438799864       0.17165470847948
H        -3.39154572869972       1.02896028953114       0.64846953301165
H        -4.02604837062775       0.27697422940100      -0.82341339571280
H         1.57075379804125       2.59221850112012       1.44083655220682
H        -0.91815021031325       3.07997107835446       0.33234861377695
H         2.28477403598472      -1.81145722696913      -1.11556794330078
H         3.55489230465437      -2.34110145417689       0.00909906602110
H         3.98373617498307      -1.65152171668787      -1.56699857635779
H        -2.12391150314864      -1.04535755200703       1.18197307498220
H        -2.68686402916032      -1.79233270678322      -0.32393055107325
H        -3.84091457820593      -1.40830685306688       0.96328778961224
Cl        0.82321736832432       0.02530369130335      -2.41523400251837
