47
C13H26F3NO3S optimized with DFTB in AMS.
N        -1.51378170882980      -0.35721007316278       0.01692473403476
C        -1.58861692120054      -1.47255736095982      -0.98556474809672
C        -2.54697379485642      -0.73774664634069       1.04097304879312
C        -0.16151248723866      -0.30183579442684       0.66449197766673
C        -3.06173220520472      -1.85417420678128      -1.06905258789595
C        -3.67184038197314      -1.42427997517938       0.27210722916566
C        -1.88157945454279       0.92820268210098      -0.66199068092641
C         0.97899950036903      -0.01172764147671      -0.30566153303892
C        -1.75758865019466       2.16912489083641       0.21091880895376
C         2.31392595723862      -0.16115656684707       0.43571340676021
C         3.49640162400698       0.11792603735286      -0.49568097083395
C         4.82868724719308      -0.03220056636617       0.24551555724713
C         6.01375002212846       0.23911245399486      -0.67941749636828
H        -1.00327179443843      -2.30372141546940      -0.59166898656817
H        -1.17196017857630      -1.14322572423776      -1.93739048093008
H        -2.87106356116067       0.15073550306934       1.58180598367822
H        -2.07356636077353      -1.43098885723431       1.73866988738860
H        -0.00442924738674      -1.27543548909072       1.13438849882145
H        -0.20629441385112       0.45202269558454       1.45310481010915
H        -3.14760593773544      -2.93213497678149      -1.20942116490224
H        -3.55362852190424      -1.35068937811144      -1.90476064318191
H        -4.51766968593451      -0.74989599742891       0.11991885896463
H        -4.01357107425414      -2.29323763135454       0.83609098817708
H        -1.23654210192329       1.03059435788063      -1.53791972978851
H        -2.91283122350773       0.81793339825206      -1.00512959516821
H         0.95284719457105      -0.72041597892031      -1.13739614870455
H         0.89765748918522       0.99956890632525      -0.71543152916240
H        -2.16067853392982       3.01141928210322      -0.35108337144767
H        -2.32307320352543       2.07458088854699       1.13607409526368
H        -0.71907130042267       2.38755421508556       0.45237557198544
H         2.39100388462435      -1.17873523383908       0.83052188812506
H         2.33935157918845       0.53218075927058       1.28298523728986
H         3.41286387672068       1.13315367777998      -0.89983929504976
H         3.46644573905238      -0.58049996298441      -1.33888542739865
H         4.85657606540250       0.66638639878683       1.08859044747325
H         4.90635633434587      -1.04695542865573       0.64901910548937
H         5.96430649919956       1.25354002863359      -1.07806209402755
H         6.94880783186536       0.12682338099677      -0.13047538021330
H         6.01492947074891      -0.46228547620580      -1.51486495247848
S        -0.96256888100157      -3.95792087316113       1.89831215950630
O        -0.62240148045821      -2.69857306826709       2.55516564393851
O        -1.92872108212311      -3.78940970923692       0.81806634623082
O        -1.18686717118966      -5.07524160761582       2.77031522992047
C         0.60236567223417      -4.34245275969601       0.97347631858141
F         1.64435784158491      -4.49258966976658       1.77805690308635
F         0.87458029470608      -3.29975171906954       0.15626916337059
F         0.49395711807164      -5.42144380623269       0.21237864906007
