43
C11H21F2N3O4S2 optimized with ADF in AMS.
N         0.48167866767772       1.46262160933486       0.02907740830541
N         0.11031047175324       0.45955960385561       1.92035781104328
C         2.32126773942595       2.15395182461268      -1.53536016731796
C         3.17222147392197       1.13983924949064      -2.30625495832369
C         0.85523159375810       1.71095135557546      -1.37266833672557
C         3.29146111252247      -0.21547422459388      -1.61365203474183
C         4.25859799823035      -1.16568649011827      -2.31848143419944
C         0.45350834481989       0.26962302617542       0.63951797775768
C         0.17231862534397       2.43958431467165       0.95350363833292
C        -0.06238788753068       1.80885919809863       2.13916842176462
C         0.00015129849255      -0.58994047944923       2.94932095435699
C         4.35131799988036      -2.52558857925061      -1.63036043326802
C        -1.38442307670965      -0.61455948678046       3.57240848385722
H         2.34253743995022       3.12666897573006      -2.05361999604957
H         2.75692673129429       2.31556922403845      -0.53549588924110
H         4.18202489695514       1.57052520680069      -2.42602804242420
H         2.76766614645255       1.01083279685302      -3.32877473631019
H         0.14748427491135       2.46666318280490      -1.74469482693141
H         0.65304824461102       0.77921667062273      -1.92068298112855
H         2.30168157007545      -0.71128412277798      -1.56556188549712
H         3.61627315906164      -0.06039418686619      -0.57133270447385
H         5.25857776099862      -0.69527527704774      -2.34338258262930
H         3.94748345175441      -1.29350270394603      -3.37238661515645
H         0.72624372621206      -0.67840872310314       0.19585588861404
H         0.18981417680672       3.49234167941955       0.70211007345330
H        -0.27443930822571       2.20629943989108       3.12241356195089
H         0.24326705218513      -1.53854604350293       2.45496603994079
H         0.79370566182300      -0.39178698933312       3.68525924942581
H         3.37176435246865      -3.03160054764192      -1.62302721022199
H         4.67597678254275      -2.41666069771279      -0.58454010241582
H         5.06570199218402      -3.18555232194865      -2.14624478155026
H        -1.60199587728136       0.31496691744974       4.11842123064836
H        -1.43624378336161      -1.44367625954844       4.29308559796153
H        -2.16168948856134      -0.76621355827635       2.80886125858099
N         3.64396391282479       0.28604958601051       1.76688893935060
S         3.36732308319697       1.60261762785756       2.63105762400852
S         3.63139042521013      -1.19494788969844       2.38971219034747
F         4.77395868070492       1.79967010239303       3.45628263409291
F         2.37414468413869      -1.83886399026735       1.44407211412638
O         3.32465917368082       2.71956590644343       1.70245473889381
O         2.36418549961922       1.51127201745827       3.68236545583943
O         3.13485568183053      -1.34065939157807       3.74545279331906
O         4.77055092015071      -1.95059396834638       1.91808641523430
