41
C11H24BF4N optimized with DFTB in AMS.
N        -0.88473925351569       0.05287564683614       0.00224233256759
C        -1.26857131195954      -0.63212720381901      -1.27828584202320
C        -2.17882045589429       0.06129480434016       0.75451903877264
C         0.15157014170560      -0.73982718219244       0.74576859778212
C        -2.63979138174966      -0.06626983264522      -1.62801089636133
C        -3.23534588108759       0.40842000411430      -0.29223541322322
C        -0.41548382513815       1.44936822628083      -0.29685988613396
C         1.47221038925139      -0.92621419722884      -0.01495995807108
C        -0.23687555253465       2.34087584999043       0.92140650860158
C         2.59490097134857      -0.00030859499367       0.46545459824614
C         3.84134837034465      -0.18202908582864      -0.40690286749173
C         4.98592193406570       0.70731506015330       0.07286386538184
H        -0.52508374091512      -0.43759731080466      -2.04973365909182
H        -1.32017958913502      -1.70369258770484      -1.07138491146120
H        -2.33700953476391      -0.94633246839680       1.14689482664534
H        -2.12943221855127       0.76252009715279       1.58586780124558
H         0.31405673428323      -0.24195487146924       1.70518794880765
H        -0.30233770099549      -1.71437805967848       0.94481711872467
H        -2.53442418783250       0.76270864951922      -2.33071500830350
H        -3.25726952642458      -0.83497664702383      -2.09489364846678
H        -4.17345673274814      -0.09911603703795      -0.06097671953984
H        -3.42554691535340       1.48335522365592      -0.30858728639816
H        -1.13756881684607       1.89543041792843      -0.98061527570119
H         0.52762840771112       1.35237173049446      -0.83448951705359
H         1.32182301792422      -0.78617218073031      -1.08658175456738
H         1.78800588098195      -1.96389299668680       0.13194854429529
H        -1.18878379826350       2.62034074688549       1.37245479540969
H         0.39283996355004       1.88120406099532       1.68125724814580
H         0.25479194578182       3.25196649886550       0.58095831965399
H         2.82990593040365      -0.22054308260018       1.51343046760718
H         2.27552905193962       1.04328350357390       0.40517659663349
H         4.15586552005478      -1.23098365746802      -0.38421652303592
H         3.58754372041494       0.07654092019487      -1.43882317546872
H         5.85657298143605       0.56923546054899      -0.56821009209475
H         4.69250664411660       1.75723876182616       0.03745541879507
H         5.26580686115011       0.45871316152849       1.09829967161433
B         1.07968809228776       1.00178752672417      -3.28694131605954
F         1.87073175712769       1.51441429661974      -2.23222676842009
F         1.08442739436484      -0.41046654743492      -3.15642031524147
F         1.52915640284944       1.40392383341453      -4.50765028410091
F        -0.26278265208516       1.42807449920070      -3.05835934812063
