32
C8H18BF4N optimized with ADF in AMS.
N        -0.14148092311700       0.26181950317532      -0.20038804399620
C        -1.16922444731495       0.61949045388178      -1.26756481046963
C        -0.43021748013190      -1.20599965277904       0.08527007176916
C        -2.42679899587228      -0.16897415739840      -0.90961160810395
C        -1.94580147765368      -1.35636775841342      -0.03711263159942
C         1.25644419146219       0.47021632494570      -0.74858701287685
C        -0.37312951491244       1.07916449082361       1.02408819152073
C         2.37483659503734       0.00897631805767       0.17025311641275
C         3.68000253153722      -0.06718360375706      -0.62490536684775
H        -0.74487815401974       0.28063284877206      -2.22390201136202
H        -1.29142446451256       1.71205544702029      -1.27212115519731
H        -0.03183467224323      -1.45227380342650       1.07777171502160
H         0.09526003487828      -1.77732395525720      -0.69352433071967
H        -2.89269248681705      -0.52684703974614      -1.83788379608292
H        -3.16130913043174       0.44843890758242      -0.37051669987030
H        -2.43815412918417      -1.35013281588130       0.94722600079442
H        -2.16214291174512      -2.31621383918538      -0.52542352150479
H         1.33739886287551       1.54587887475136      -0.97840840391159
H         1.28458066872987      -0.09020066181103      -1.69351595803918
H        -0.18595858717493       2.13396757957615       0.78475997387341
H        -1.41201605507687       0.94670574970315       1.34952635119236
H         0.30990937122070       0.74632115561710       1.81428824465885
H         2.49367158694576       0.68681643673844       1.03333585764057
H         2.14800465595892      -0.99698017006327       0.55864135940790
H         4.51234414156644      -0.37161792609023       0.02563492367214
H         3.57993800724431      -0.80382664672731      -1.43620081430227
H         3.93521779879008       0.90574320101232      -1.07284121472589
B         0.35720868603122      -1.92544129186173      -3.36838194742814
F         0.53547957849587      -2.72358407380001      -4.49046314443126
F        -0.95799611126260      -2.07915024887612      -2.81535783272374
F         0.53802678639529      -0.53093027278812      -3.68098277820455
F         1.30784340730128      -2.25785736619508      -2.33353165506646
