42
C12H16F6N2O4S2 optimized with ForceField in AMS.
N         1.73927376494951      -0.03581184254179      -0.49802650222439
C        -0.64165008101998      -0.00998671060008       0.09895533330751
C        -2.07925250559836      -0.02304198194867      -0.42988149438276
C         0.37626218039319      -0.06752742995524      -1.04271496077737
C        -3.08136846248795       0.03366985300403       0.72855859186958
C        -4.51831964278876       0.03213947357592       0.21871217520663
C         2.37523184136379      -1.20600750671192      -0.18464718690251
C         2.34631095968291       1.16707252910854      -0.26202825771720
C         3.65837777801073      -1.18961615570114       0.36901232394675
C         3.63288652127556       1.21940362060684       0.27971832902629
C         4.29034268340010       0.03197493470857       0.59711607599478
H        -0.48516685213387      -0.88535133861566       0.76701635502393
H        -0.47374751219935       0.91832102782466       0.68802534991606
H        -2.24782295228311      -0.95140793818378      -1.01927368525332
H        -2.23482133553591       0.85376917648399      -1.09675951663273
H         0.21992978828114      -0.99422715048914      -1.63944453578199
H         0.21841965993602       0.79115735917255      -1.73379631162815
H        -2.91358697172018       0.95732147187596       1.32455274783371
H        -2.93553050940566      -0.84566567064289       1.39342069490792
H        -4.69864941396978       0.91691478214448      -0.42821617052169
H        -5.21584860216077       0.07426733540211       1.08158942011506
H        -4.72161001915471      -0.89475267384441      -0.35865455345524
H         1.88599284118530      -2.15875462426046      -0.34923320661705
H         1.83094111930276       2.09326668110779      -0.48278343392911
H         4.15596206426916      -2.11652695737859       0.62366495092318
H         4.11201059538119       2.17332722086784       0.45894962382825
H         5.28435441818464       0.05864251637623       1.02529498553416
N         0.84800762638436       5.86471156322215      -4.25284698170339
S         1.40616271663120       6.69350373643839      -5.55203166188678
S         0.83689313766969       4.22698297938017      -4.18422185302036
C         0.04728876746475       7.04155631246153      -6.64913404731126
C         2.27992945651651       3.67342633389335      -3.30132499720423
O         2.00077018664102       7.99384786617460      -5.09064609391109
O         2.44938692852186       5.89442778623545      -6.28272330504605
O         0.83646270915554       3.63530032350104      -5.56647772594259
O        -0.38754436745836       3.77167533054822      -3.44194428184884
F         0.50215883558674       7.76183996916322      -7.73661438501181
F        -0.90842725319241       7.78033208347279      -5.97851793517887
F        -0.51478854185932       5.85802521480268      -7.08714961317182
F         2.28527134211054       2.29332482573416      -3.24335625711603
F         2.26052067971164       4.18889178016355      -2.01970395977099
F         3.41974985785864       4.10780186772292      -3.94964999138621
