54
C14H26F6N2O4S2 optimized with ForceField in AMS.
N        -0.71141435704131       0.31663019911156      -0.15405020595450
C        -1.27836043163584      -0.44620278173241      -1.31342726574091
C        -1.83846344169233       0.72417480104770       0.74683751277522
C         0.28028521314578      -0.50055607111797       0.62839000699446
C        -0.08088560256069       1.55484081044249      -0.72768068029292
C        -2.12683285164771      -1.66374049932042      -0.91048957905483
C        -2.72605419080478      -0.45103479106291       1.20785295260349
C        -3.26252611584246      -1.24025420872177       0.01676033808442
C         1.55729049534275      -0.92358103877542      -0.13451558706266
C         0.66088334199091       2.46629227523481       0.28060929296667
C         2.48083954372948      -1.73815526830165       0.78037374786053
C         1.22290937817126       3.69972983079591      -0.42327867102228
C         3.75418990815955      -2.15773598526331       0.05231233131009
H        -0.48283222812163      -0.77810815628918      -2.01220076515580
H        -1.93826401862252       0.21873685181279      -1.91932113598347
H        -2.49966603360914       1.46089022871900       0.23479145146609
H        -1.45566890575262       1.22130231599157       1.66389975008007
H        -0.18502819908199      -1.43083724668650       1.00618424516182
H         0.58536011265296       0.04767036985926       1.54660479418433
H        -0.85956607435522       2.17739795555783      -1.22715244203752
H         0.63182205156739       1.28498592216931      -1.53894589184613
H        -1.50398671316014      -2.44909629442509      -0.43531046014584
H        -2.56412606090218      -2.11509920833883      -1.82733287205474
H        -3.58491165604207      -0.04832256420723       1.78659821309421
H        -2.17275180496632      -1.12438153673741       1.89503346621161
H        -3.98573131239986      -0.61035053531771      -0.54668156289923
H        -3.80211198299919      -2.14164310644329       0.37937507106587
H         2.11710079278096      -0.03622205793939      -0.49314533821682
H         1.29290391426108      -1.55720168968816      -1.00288207493473
H        -0.02375589010575       2.81384106761894       1.08008968809020
H         1.51277992599406       1.93270700022299       0.74856506787544
H         1.95131244245787      -2.65143894996890       1.13024416507587
H         2.75901840776917      -1.13198359070215       1.67009847419596
H         1.75876517619550       4.33826460339596       0.31025698308514
H         1.93788501875162       3.39858083646635      -1.21869361397855
H         0.40130811495282       4.29440804094616      -0.87664970178448
H         4.31736676457426      -1.26209655870792      -0.28601263322725
H         3.50571828292266      -2.79039005968160      -0.82643761907686
H         4.39894464493325      -2.74298152560731       0.74122280570921
N         1.72041049010539      -6.04091123614199      -5.48053418562089
S         2.07864823190546      -4.50212054868133      -5.04486687152473
S         0.63366159308611      -6.40377692081636      -6.65282632384460
C         1.03108476437983      -4.01523435814946      -3.68990602509332
C         1.50269439982940      -6.74939000338074      -8.16794246547672
O         3.51096727094967      -4.43934254169447      -4.59587876944338
O         1.87228502145865      -3.56108006780810      -6.19959867444452
O        -0.32022981757176      -5.26187361013842      -6.87128459027363
O        -0.13476586546407      -7.62923644322187      -6.24703407585273
F         1.34519180037458      -2.72551056845535      -3.30898220271382
F         1.22859025609358      -4.86997740888251      -2.62200577888341
F        -0.29371444071041      -4.06707630945521      -4.07899888287126
F         0.59241529417295      -7.04059873070457      -9.16612418985289
F         2.34129584021707      -7.83219258765963      -7.98304031705988
F         2.25151989106396      -5.64850140736610      -8.53783359896537
