36
C8H18F2N2O4S2 optimized with ADF in AMS.
N         0.21380209032737       0.12452798279506      -0.76509728945674
C        -0.30786305262429       0.48383907992634      -2.14821932716477
C        -0.28977531517131      -1.30088256175438      -0.59657029261334
C        -1.70426788608880      -0.13337429580174      -2.22271535883769
C        -1.70222567428772      -1.28260900922387      -1.17850709248785
C         1.72519945243987       0.22948488905088      -0.72569301620707
C        -0.40259004087327       1.02011373566584       0.25774229993127
C         2.37937475507591      -0.36348561438230       0.50994656490707
C         3.88901172199517      -0.12175356595703       0.45242831117344
H         0.37814244013644       0.01500563796975      -2.86730817767766
H        -0.26688164133803       1.57529845648850      -2.26945780566095
H        -0.22568275658496      -1.58137411100074       0.46237138486479
H         0.38125355630939      -1.93128721571199      -1.20267660020924
H        -1.87592662303692      -0.51989522115850      -3.23659152699785
H        -2.48778728963587       0.60694399947571      -2.00210078605756
H        -2.46005883207851      -1.11200870269877      -0.39907995106211
H        -1.90988848562454      -2.25050492248872      -1.65382001100884
H         1.95484781386652       1.30324279799023      -0.82763919370179
H         2.08783137980324      -0.28059152648429      -1.62564507259539
H        -0.05945732760428       2.04664669821265       0.07742242571201
H        -1.49363480838895       0.96853691008284       0.17149798258446
H        -0.09251934898202       0.69021424971911       1.25568834223917
H         1.96968792967728       0.07894414183946       1.43401405199165
H         2.19727419847297      -1.44960193978068       0.53153273522573
H         4.37837280584675      -0.57053558142132       1.32892060636133
H         4.31434879120253      -0.58998898394233      -0.44645099276958
H         4.12375369474666       0.95441456222053       0.44124700858531
N         1.49100928410470      -2.66420362393353      -2.92043911194687
S         3.09292444278599      -2.53092783500893      -2.94912366492676
S         0.58722845569675      -2.52338136811345      -4.24800821925432
F         3.32904533417244      -0.90001164196604      -3.28799042431565
F         1.02107516181456      -3.79207814864065      -5.18109635016231
O         3.53536480914799      -2.63934167550210      -1.56887909044066
O         3.78533213659088      -3.20872806984551      -4.02097426290853
O         0.87257636388192      -1.34696820657744      -5.05275369458148
O        -0.78254748527590      -2.79852733264259      -3.84668926473123
