31
C9H19NO2 optimized with ADF in AMS.
N         0.07848224268174       0.36912968820531      -0.12190857539952
C        -0.44190263402367      -1.02514695027461      -0.41407821765730
C        -1.10260454864038       1.09421118397832       0.56089527713193
C        -1.90882916724024      -0.80744493126330      -0.73892954850766
C        -2.34572904266182       0.23365085163461       0.30155051564013
C         1.26341708147833       0.35270478006040       0.80709826310709
C         0.40368400242567       1.07502122382210      -1.40973919573202
C         2.48956922319368      -0.35466274595198       0.26369923695364
H        -0.32078506413613      -1.61023346964012       0.51257374699069
H         0.15467821583133      -1.47527514380167      -1.21872606037363
H        -1.17859817375499       2.10301480706221       0.08147917459624
H        -0.85264517065295       1.17158420133437       1.62814701873841
H        -2.47633477096924      -1.74747179788977      -0.67439687582852
H        -2.03123462028066      -0.37838674787466      -1.74549483757468
H        -3.15818610598335       0.85753541427375      -0.09732567660785
H        -2.67899449554020      -0.26011907546424       1.22933506326907
H         1.47927356188991       1.40936413959840       1.02854140014549
H         0.91227633962893      -0.12696070611140       1.73432029346896
H         1.14820324610828       0.48393334826802      -1.95751190259446
H        -0.55207535866203       1.22092314537116      -1.96459576348703
H         0.77544212765155       2.07714666684826      -1.15915063725401
H         3.26066302679762      -0.35622474275226       1.04906790426270
H         2.28084207656388      -1.40243658350026       0.00255121679347
H         2.90986949335489       0.15678491942148      -0.61260894258646
C        -3.04546063590591       4.13858437261115      -2.70824095546830
C        -2.18187344137081       3.11988198329357      -1.95389474857818
O        -2.26778881460813       1.91137999112171      -2.34955272723574
O        -1.46264481922099       3.55756862204833      -1.00251848436758
H        -2.78712540203456       4.12224305669607      -3.77824215446579
H        -4.10450102066086       3.84702731470650      -2.63171927876369
H        -2.91244327885888       5.15247601476855      -2.30807192581541
