38
C10H19F6N2P optimized with DFTB in AMS.
N         1.43237235970887      -1.47027512628594      -0.48522113875635
N         3.07750435089408      -0.12673881575740      -0.82365060045899
C        -0.90143425639242      -2.05831610615984       0.04709327251427
C        -1.44416100546216      -0.67367467821547      -0.32163998442777
C         0.34761826569062      -2.40839612307477      -0.75797569111775
C        -2.70855909594601      -0.34174109499640       0.47637248996825
C        -3.24701416524348       1.04510582229240       0.11071065426885
C         2.07339714994040      -0.76787187699732      -1.41386010017849
C         2.05303416676237      -1.29154942379912       0.72175882025256
C        -4.50698586998940       1.38061627086975       0.90669232788617
C         3.09305917424408      -0.44446224650593       0.50716684297336
C         4.12932579086685       0.58487826699614      -1.52985086008969
H        -0.67457958026143      -2.09510590176397       1.11691530642705
H        -1.65795370527523      -2.81997397744656      -0.16131989464307
H        -1.66784841752801      -0.64527018053815      -1.39345908703235
H        -0.67595705890445       0.08171756238409      -0.12152767019724
H         0.14943036041381      -2.37085403319041      -1.83100736820060
H         0.70872221521077      -3.40960830344254      -0.50714725993529
H        -3.47495153412590      -1.09727647000987       0.27355435890455
H        -2.48141603024707      -0.37583860717546       1.54751740558616
H        -2.47744154779043       1.79847166211779       0.31144227753015
H        -3.47350737590658       1.07605638544133      -0.96034291681340
H         1.84818116680940      -0.75811661950880      -2.46534343308049
H         1.71808704451125      -1.78185563053381       1.61864270692255
H         3.83616247294567      -0.05262468566627       1.17921391639371
H        -4.29614532567789       1.37469681072885       1.97697196357119
H        -4.87114281283259       2.37000349040618       0.62966211918366
H        -5.29249916053182       0.65157931344052       0.70370668881121
H         4.94478962671988      -0.11517572547286      -1.71841202665164
H         3.73683491302340       0.94194844037607      -2.47966285261975
H         4.47611722805612       1.41815102870408      -0.92093739090308
P         3.86034093700426      -3.19674704745216      -2.82481480968532
F         3.85504111177325      -1.56702741637533      -3.25841824375214
F         5.48741005113445      -3.20983719661385      -2.91658499367354
F         3.95543938506974      -2.71594481095650      -1.22611548060528
F         3.80922243836774      -4.75469861857354      -2.35529221441059
F         2.18220071135382      -3.10541109571916      -2.69908061021407
F         3.71421094461404      -3.60648742722578      -4.39251336494679
