37
C11H23NO2 optimized with ForceField in AMS.
N        -0.40059779391205       0.16684539049818      -0.06145574672324
C        -0.96085643099541      -0.88100597065538      -0.97004982708630
C        -1.45854410348173       0.39000142486216       0.97166095608250
C        -2.42084401040085      -1.09103317463245      -0.61537569075147
C        -2.49637054498670      -0.70693474240501       0.83535377491157
C         0.84712504559210      -0.33617785427980       0.60138870474505
C        -0.16323751920733       1.42748648814825      -0.83723743389416
C         2.03322700409395      -0.57285130471456      -0.36489785897941
C         0.44570705942426       2.57760018058992      -0.01406304033847
C         3.18903577773057      -1.27029850241059       0.34666731835522
H        -0.45447395158874      -1.86540639800627      -0.84194372717106
H        -0.86911570057902      -0.62284154769567      -2.04998683936087
H        -1.99255014060331       1.35748076662827       0.82558395541276
H        -1.06195235604951       0.40829933888547       2.01256432427959
H        -2.73957723448147      -2.14455310883970      -0.77491572275681
H        -3.05944872726390      -0.41085464904011      -1.22149007503454
H        -3.51389165751234      -0.35285737546462       1.11111231692749
H        -2.21556927214520      -1.57476275699949       1.47251748492621
H         0.62586055573777      -1.29099913608206       1.13323799553440
H         1.18153214858120       0.37097790357816       1.39271354914142
H         0.50189587613654       1.23737079824360      -1.70793793604721
H        -1.12213741002325       1.78989111804731      -1.27454117365652
H         1.72516349625469      -1.19703468176935      -1.22882836345456
H         2.41312573976010       0.39361158857128      -0.75541252910127
H        -0.12769081529294       2.76554066633965       0.91613216614039
H         1.50270175748623       2.36794689299740       0.24683056228911
H         0.43208512404867       3.50661793381042      -0.62148170515958
H         3.54744676200193      -0.65199556921258       1.19688407616840
H         2.86763518730941      -2.26418519495845       0.72397496499303
H         4.02877757592526      -1.41672427076110      -0.36512180761330
C         4.64278807689504       2.49970909470333       1.65488302080332
C         5.47019220827957       2.75912528929555       2.87419607830890
O         6.66796581283721       2.96556514020220       2.76541697539405
O         4.95294628569531       2.76648921295808       3.97949439291028
H         4.68816342188731       3.38006906210705       0.98001061539179
H         5.03524104270701       1.60969905417097       1.11980619081530
H         3.58308899793962       2.31320862358993       1.93177342139797
