50
C14H28F3NO3S optimized with DFTB in AMS.
N        -1.97721301665696       0.03240158124378      -0.01599112175819
C        -3.15174099232210       0.24220044587401      -0.93393595884902
C        -2.04247754809242      -1.35184690395337       0.55574880089446
C        -0.73546568627735       0.14590186586697      -0.86556403034711
C        -1.97166697760070       1.05126071673496       1.09081714235202
C        -4.49739011845088      -0.05759951220308      -0.29303121161340
C        -3.36979653463867      -1.66236892860222       1.23895101326203
C        -4.53517649412023      -1.47568051777603       0.26932520738133
C         0.58325592708164      -0.06851307698179      -0.13212317817759
C        -1.66495965270666       2.47315043615888       0.64021632804971
C         1.72816478153026       0.20339001666121      -1.11764752020406
C         3.09124820919361      -0.01580315543361      -0.45659866437940
C         4.23134684798189       0.26203228520218      -1.44159471378307
C         5.59588590135768       0.04697707902339      -0.78951398769518
H        -2.99987922706345      -0.40522843159365      -1.79962789052463
H        -3.12361536187493       1.27584818751723      -1.27237063403537
H        -1.22025502453043      -1.46053399142508       1.26553243474979
H        -1.88517891227540      -2.04183382488376      -0.27785202808922
H        -0.75492940778446       1.13663683774168      -1.32045538070857
H        -0.83634788602746      -0.58726655421689      -1.66832706676403
H        -2.95660478899976       1.02061320249181       1.55980841416575
H        -1.23433340648275       0.72354262148244       1.82811191706162
H        -5.24996149723517       0.05773497838143      -1.07721717826780
H        -4.72732849396759       0.66474381488528       0.49566285514435
H        -3.50532675561843      -1.02805763540208       2.11947316811538
H        -3.32604159381764      -2.70008953267910       1.58040870878943
H        -5.48032272101024      -1.65065902235215       0.78838508833447
H        -4.45300372109540      -2.20014970723665      -0.54687366319598
H         0.67504701665342       0.60918541963495       0.72118900376705
H         0.66355536329051      -1.09455136090494       0.23961020966179
H        -0.61700642111134       2.59203709082279       0.37322949894311
H        -2.27287198913646       2.77420479759073      -0.21021467947621
H        -1.88322689763488       3.13821031671852       1.47575981008142
H         1.65530257481768       1.23392595686941      -1.47844950019226
H         1.62586981694546      -0.46016002734153      -1.98186540851326
H         3.16131578373438      -1.04845123814344      -0.09662417343698
H         3.18702833997286       0.64674872329329       0.41096298541374
H         4.13253219560914      -0.40095403117198      -2.30739672918729
H         4.15741778522554       1.29384966390255      -1.80036367776229
H         5.69676509021878      -0.98262896999146      -0.44291768569907
H         6.38936294352574       0.25046924245164      -1.50875453319609
H         5.72157992616713       0.71422794974003       0.06448892398503
S        -2.11485702103643       1.63644754682550      -3.62087900580650
O        -1.79112552371351       2.57059357542582      -2.54136542255052
O        -3.51329170255751       1.25062627616698      -3.66060640112714
O        -1.18095895418194       0.52519723031490      -3.71983333075103
C        -1.83721159655293       2.61963974300497      -5.15974078815022
F        -0.57525323816810       3.03111535515466      -5.22231348827531
F        -2.62569621038394       3.68756202408704      -5.18339186329781
F        -2.09163525197966       1.88728027342373      -6.23711435353786
