54
C14H26F6N2O4S2 optimized with DFTB in AMS.
N        -1.70359449168572      -1.16948162309860       0.13840167184549
C        -2.17519987484537      -0.05082423192330       1.02395842406832
C        -2.43463232432841      -2.44029573412732       0.47862934076947
C        -0.24208199581697      -1.44880552185132       0.39456619750187
C        -3.68683730027837       0.12901594715169       0.99615400971397
C        -3.95003425793846      -2.29668536589181       0.46693726021792
C        -4.39699798439580      -1.16416416472888       1.38774415685972
C        -1.90260265258200      -0.82909903294955      -1.29353599750384
C         0.69912528737125      -0.26954160783130       0.17244377575096
C         2.12382128038019      -0.70234752311034       0.54409678566294
C         3.10413950864272       0.46564623315557       0.40974177821065
C         4.51654665412045       0.04489374053937       0.82760006096680
C         5.50089404699678       1.20694843685824       0.70919854157750
H        -1.67778313035654       0.86268991459546       0.69515465566984
H        -1.84756644241173      -0.29741573391248       2.03657408466343
H        -2.10781110087539      -2.73022495735671       1.47951952142506
H        -2.11010236987931      -3.19929683190507      -0.23724583686728
H        -0.17129671868954      -1.78086348707842       1.43258472340896
H         0.03386396953819      -2.28243763066233      -0.25753035502110
H        -3.92862402869368       0.91686670693424       1.71419484607737
H        -4.02081928321451       0.46349385506885       0.00887241602902
H        -4.32309817878031      -2.13307972595097      -0.54878657191515
H        -4.35817700251269      -3.24364961565166       0.82918486343572
H        -4.15460665303653      -1.41945171630812       2.42235084685228
H        -5.47851934265874      -1.03122174139143       1.31151537514024
H        -1.40940007813302       0.11608184693427      -1.50888862191656
H        -1.47384866009590      -1.62020417425333      -1.90629011976280
H        -2.96504832931377      -0.73897410029344      -1.50409082140351
H         0.67382103243279       0.06365834182537      -0.86922221313258
H         0.41410666661416       0.56674488185572       0.81379856945367
H         2.12661382009731      -1.05787660235262       1.57822865213105
H         2.43784215732837      -1.52964842096607      -0.10114491336682
H         2.76783529265403       1.29282661260502       1.04350773807072
H         3.11535250038642       0.82014757110125      -0.62717952931063
H         4.85233015398901      -0.78398178029420       0.19494711304532
H         4.49602793216105      -0.31079300595590       1.86276175658150
H         5.54960875258325       1.56495252169222      -0.32043182413091
H         5.19349867174200       2.03434530644172       1.35013428710479
H         6.49714241436886       0.88443941494618       1.01237903886785
N        -1.29389313375965      -1.81150328132659       3.43514661782636
S        -2.15994838099088      -2.84520368309083       4.31972276641257
S        -0.10655767763853      -1.00403613391184       4.15809792490237
C        -3.28748899951417      -1.80657477701798       5.39904168448748
C         1.35574226592844      -2.17242518995243       4.21397576779040
O        -3.07189129689527      -3.46036994121819       3.37784459258530
O        -1.40184650720982      -3.69349621731041       5.19865507644168
O        -0.36123531677901      -0.58058671335443       5.50777920412824
O         0.31070369208752      -0.01216536174821       3.18649204160559
F        -4.44528068299297      -2.43417467737099       5.53488900114759
F        -3.51197699191729      -0.64781838385739       4.78328135955904
F        -2.77642776148770      -1.58078961182251       6.58715219394902
F         2.47724997401766      -1.47255232628419       4.11482325506063
F         1.27793066846578      -2.97812261296666       3.15412423960189
F         1.39138824970182      -2.89453471092738       5.30874863913059
