54
C16H36ClN optimized with DFTB in AMS.
N        -0.03418445704573      -0.00974500610630       0.08183232628671
C         0.81352275776841      -1.06582643720985       0.73204460652416
C        -0.86148988421177       0.67335383690364       1.13808762082570
C        -0.90411203514516      -0.68133483395967      -0.95602290850410
C         0.80758162372192       1.03490274597261      -0.60582629272942
C         1.82640845005954      -0.56015690072385       1.75811202525068
C        -1.83511349191857       1.72837286527927       0.61517044880526
C        -2.03811505433929      -1.53995667038376      -0.40746110465868
C         1.83750493452577       0.49491619947521      -1.59444065589003
C         2.68222881229732      -1.73657220512135       2.24518008138575
C        -2.75866606146260       2.18157387147316       1.75015899372891
C        -2.79008490631881      -2.17001034271515      -1.58816941376204
C         2.32993345692773       1.65930792546520      -2.46508865899364
C         3.70718531796907      -1.27833027448997       3.28028857321180
C        -3.72525828630475       3.25594892196691       1.25496540984003
C        -3.95846640824550      -3.02288616129603      -1.10119490810603
C         3.38089191711672       1.19085767528494      -3.46778267794711
H         1.33806574978810      -1.59043476484776      -0.07010782112170
H         0.13244629828599      -1.77194207106968       1.21323283196576
H        -0.16190851376363       1.14557915224426       1.83168423852885
H        -1.39945554961464      -0.10897861841893       1.67968429309945
H        -0.24326291270351      -1.30439536647286      -1.56238278779216
H        -1.30718478658237       0.11256092541384      -1.59773507741996
H         1.29909932112393       1.62497085760665       0.17093913305474
H         0.10613985426734       1.67462377385572      -1.15214802166970
H         1.31681971586223      -0.11185579385226       2.61479981373285
H         2.47876811238911       0.19667037660025       1.31661515372043
H        -2.43969178379474       1.33688050599756      -0.20301301163927
H        -1.28536705121517       2.58933349430572       0.23027626605345
H        -2.74237205862055      -0.93407551916030       0.16753038141416
H        -1.65838784560888      -2.33260802849965       0.24551172427560
H         1.39103167789830      -0.26101840372826      -2.24455260164102
H         2.68444619033049       0.03787637799957      -1.07222595022127
H         3.20034619649699      -2.18652562286885       1.39197074749212
H         2.03332968652416      -2.50099644283096       2.68525751096807
H        -2.16127240150216       2.57671874090679       2.57968873365767
H        -3.32604049462268       1.32243245756568       2.12577352191702
H        -2.10060352864577      -2.78955860716203      -2.17095109174846
H        -3.16319807298533      -1.37520410658766      -2.24022199663165
H         2.75441631594326       2.43900289688450      -1.82405099299650
H         1.47606739562657       2.08641765746512      -2.99928767878034
H         3.20774141262541      -0.84357741939645       4.14684905178575
H         4.37473026645697      -0.53012064256345       2.85153078662824
H         4.30364957929121      -2.12779993344474       3.61210346458165
H        -4.31722608930882       2.87758981669600       0.42107603305531
H        -3.17531639626832       4.13432858040838       0.91674301775839
H        -4.39889274188459       3.55199403425451       2.05895409852742
H        -4.66845613792785      -2.41389017372315      -0.54010308901761
H        -3.60483857768815      -3.82850367429945      -0.45566564420477
H        -4.47680941394666      -3.46279379918544      -1.95301441200015
H         2.96588561100147       0.42766598499571      -4.12726296359035
H         4.24719888111447       0.77203436778774      -2.95259365731743
H         3.71146047650825       2.03238277422400      -4.07623792775842
Cl       -1.49891422404480       2.03580855868490      -2.61768358333409
