48
C12H26F2N2O4S2 optimized with ADF in AMS.
N         0.79029844517235      -0.56123774916742      -0.34638967714514
C         1.69145564163062      -0.29400230391093      -1.56976943404490
C         1.58004403985117      -1.55055665408113       0.50943814923803
C         0.60178782272308       0.71121757773599       0.45141235461658
C        -0.53256646632933      -1.15226157700301      -0.79212797042046
C         3.03491341304175      -0.97097532837427      -1.28357488415091
C         3.03545256178394      -1.22904747879412       0.22739274732522
C        -0.21934220351569       1.79608392268520      -0.22339404208719
C        -1.47366914436727      -1.51950461651191       0.33946138823211
C        -0.12504294524443       3.09747200426885       0.57786730323321
C        -2.69605591394980      -2.25501440970649      -0.22040673633758
C        -0.95118580590692       4.22252225585647      -0.03731401899851
C        -3.67779403669233      -2.64998620185697       0.87837570645611
H         1.77201909642952       0.79383225208821      -1.67874522466574
H         1.19323898463284      -0.71700334443385      -2.45031666151182
H         1.34966968668976      -2.55671422597166       0.13348644862286
H         1.26685169747529      -1.44396126584607       1.55505296984416
H         0.13482077531152       0.41803581578704       1.40288872544644
H         1.61668895756001       1.07554948406807       0.67274103077842
H        -0.99039241803513      -0.42079480394847      -1.47497287762509
H        -0.27932676732093      -2.04953079031582      -1.37315313192385
H         3.08103110990081      -1.93132170630158      -1.81553129242170
H         3.87709972749445      -0.34626102233511      -1.61172488639301
H         3.37736536784047      -0.35061560575534       0.79913037548240
H         3.67221790306916      -2.08421557561499       0.49577395293487
H         0.13358082503720       1.97952432730647      -1.25266865337999
H        -1.27613772041075       1.48868941493728      -0.29613550993617
H        -0.96354535061422      -2.18744952367413       1.05421560083811
H        -1.80640031115726      -0.62436248159141       0.89509146398749
H         0.93405537655543       3.40554768238783       0.64157822517018
H        -0.45951010006717       2.91317495093740       1.61463784706193
H        -3.20335030010675      -1.61254968195922      -0.96247133071194
H        -2.34784713825940      -3.15251838563656      -0.75841740727368
H        -2.01783944661883       3.95208058900551      -0.08273404640912
H        -0.61495018406879       4.44371979896855      -1.06258459093279
H        -0.86197812707178       5.14539022498139       0.55394034387872
H        -4.06022066038524      -1.76507825521274       1.41255112232489
H        -3.19455710706118      -3.30954766019356       1.61660579831171
H        -4.53905213422541      -3.19138220083464       0.46045580436218
N         1.38234410502621      -5.55436328209050      -3.12906187589647
S         1.12544369840295      -4.36205667714091      -2.13898167302730
S         2.88425010589580      -5.78341947933969      -3.73075723412658
F         1.09037889521515      -2.98444324854520      -3.14023920151429
F         3.66373346799889      -6.44767661643734      -2.43735035639353
O        -0.24319432420862      -4.39524666052554      -1.63980252387904
O         2.19118800132992      -4.01776445943597      -1.19709471514741
O         3.61782274836320      -4.56248141342111      -4.00588762740982
O         2.79744943698573      -6.85170272894657      -4.69853161198159
