46
C14H30ClN optimized with DFTB in AMS.
N         0.10143995316416       1.48233438046626      -0.12565199184272
C         0.71502577961701       2.35786132406161       0.92908796897836
C        -0.46277210085408       2.46609293551859      -1.10317352437321
C         1.14219721626460       0.63668297562564      -0.79627949230333
C        -0.99749514905075       0.66237705586463       0.49552471953287
C        -0.25020315775186       3.52612058667001       1.08269445770158
C        -1.00016828584721       3.61920472769659      -0.25653181760405
C         1.81694158458012      -0.37131368971749       0.13106119635050
C        -1.62685659937825      -0.37418666683296      -0.42875369828038
C         2.88342898172933      -1.14903754885181      -0.64494061708176
C        -2.79762648828563      -1.04007362975499       0.30568668427011
C         3.57089790809773      -2.17109414353077       0.26654525784584
C        -3.43902025843907      -2.13286996770797      -0.55414137041174
C         4.64157860832866      -2.95682732420868      -0.48728987850191
C        -4.60143050330658      -2.80089526932099       0.17813365314777
H         1.68441234484449       2.69455548843611       0.55455100518178
H         0.84578479027638       1.77421421065588       1.84861035011984
H        -1.22371963480135       1.98494387246951      -1.71701102152845
H         0.35394747630703       2.80292745648746      -1.74588808311396
H         1.88931522855942       1.32574477621603      -1.20148507059251
H         0.65716150127404       0.13013757474216      -1.63474189908141
H        -1.75901531619549       1.36719302816715       0.83507993440367
H        -0.56544519806875       0.17436145640945       1.37847560680852
H         0.29932400682010       4.44343262376943       1.29936709369849
H        -0.94686789492639       3.34631284341913       1.90364015218174
H        -2.07746552649038       3.52304428987121      -0.10806991485300
H        -0.81141527956024       4.56955595585406      -0.75907456358077
H         1.08211529381065      -1.06921637568264       0.53661130362782
H         2.27769214324324       0.14496966516179       0.97494739163000
H        -0.89703139547840      -1.14261904228534      -0.69668251951509
H        -1.99083334082119       0.08518210015080      -1.35376845848038
H         3.62885000837739      -0.45270231051657      -1.04559559441534
H         2.41886715918961      -1.66519278252810      -1.49303858071149
H        -3.54774211770815      -0.28282606739434       0.55763184486320
H        -2.43342108402913      -1.47483764228459       1.24155496378442
H         2.82159831054256      -2.86267596274512       0.66414377372077
H         4.02766860078996      -1.65008094961020       1.11349108956532
H        -2.68535076754325      -2.88668673301213      -0.80551866848618
H        -3.80011525362340      -1.69540779892004      -1.49158695534906
H         5.11204689866893      -3.67853858311934       0.18045000619052
H         4.20165927902719      -3.49640655396546      -1.32756816057737
H         5.41139554149868      -2.28548130716214      -0.87103544654355
H        -5.04443050843471      -3.57304880534637      -0.45102253879983
H        -4.25418412704345      -3.26216180427336       1.10323495954233
H        -5.37088358402135      -2.06755565157760       0.42317707981784
Cl        0.70677741414784       0.03758305153546       3.14820796716419
