58
C18H37NO2 optimized with ForceField in AMS.
N        -0.02127711403457       1.98510960539110       0.01024689130033
C        -0.70570741704284       2.88599560097448      -0.96759071989022
C         0.63661173877176       2.90443367122682       0.98937840816629
C        -1.03082821041016       1.13704960076977       0.72424083717623
C         1.01186237011617       1.16756077706994      -0.70606716973633
C        -0.23120708224305       4.30544974720119      -0.72176826913318
C         0.13119322574650       4.31241698418165       0.73630626332104
C        -1.76744332731187       0.11620685684973      -0.17715230230745
C         1.77609179118399       0.16321488052236       0.19113034350799
C        -2.87321794327567      -0.60170349696684       0.60688546745361
C         2.89262250244141      -0.53062649024287      -0.59955789523706
C        -3.61979484086118      -1.60815791507157      -0.27702846583607
C         3.66061121885335      -1.52780902023461       0.27682658445889
C        -4.68561391787489      -2.35823379984046       0.53062227967399
C         4.73618504831344      -2.25509326298100      -0.53888264917688
C        -5.43649553707934      -3.36092990032586      -0.34012905871023
C         5.50763375029668      -3.24999448477577       0.32286584501655
H        -0.51833413839457       2.60493135787656      -2.02889872326886
H        -1.81217544035493       2.88930637261319      -0.83392702474375
H         0.44885689103032       2.62345670840297       2.05123706067869
H         1.74349962865942       2.93222129189742       0.86262908309318
H        -0.55240698862908       0.58323197225449       1.56223989764058
H        -1.79217393473024       1.79494785761235       1.20485675311519
H         0.54866471272987       0.60370508673272      -1.54599738806905
H         1.75523067875738       1.84769751443162      -1.18387566004822
H         0.67094559248765       4.51598672848309      -1.33798307342079
H        -1.02171046442402       5.05380111084963      -0.94943482964884
H        -0.77566471385620       4.50605177644581       1.35131337233534
H         0.90480324379401       5.07913292084442       0.96086660818872
H        -2.21880256772060       0.62373267750991      -1.05532829593403
H        -1.05520934806259      -0.65035794188891      -0.54624807023526
H         2.22143754199106       0.68070272722654       1.06650811309700
H         1.08363469011042      -0.61923527788232       0.56417746904181
H        -2.41866240307125      -1.13673480684691       1.46990219408535
H        -3.59686906013036       0.14765669593194       0.99655830251298
H         3.60084497889305       0.23382252670474      -0.98822021267316
H         2.44519949106691      -1.07013695544976      -1.46351861273149
H        -4.10686385307431      -1.06805050095879      -1.11890267311330
H        -2.89587759259148      -2.34044336356150      -0.69796749924379
H         4.14140250719967      -0.98322805788126       1.11941897724009
H         2.95157353198546      -2.27495429825618       0.69705100061054
H        -5.41420798261408      -1.63333081762530       0.95454180992794
H        -4.20315676711813      -2.90397417887025       1.37057551682464
H         4.25999553830194      -2.80424267610948      -1.38018632936985
H         5.45059162051400      -1.51538164144201      -0.96130871793197
H        -5.95576080648319      -2.83736544548432      -1.17079970444865
H        -6.19422369555266      -3.89154906585760       0.27424369960843
H        -4.73243353379408      -4.11028892490914      -0.76044439457417
H         4.81842709102053      -4.01432122114191       0.74084427902619
H         6.27217557831758      -3.76339494259107      -0.29771706451004
H         6.02092086202572      -2.72282137313528       1.15494779142501
C        -2.53986750640772       3.39129950575819      -6.04583991648391
C        -1.39464639409859       3.05090937820813      -5.14518311910253
O        -1.02411764095021       1.89252604209018      -5.04226129692997
O        -0.82692484319450       3.92730427578765      -4.51344224222446
H        -2.29187415065398       3.10508648447400      -7.08984646696672
H        -3.44710556748239       2.83890803100378      -5.72184304108654
H        -2.75384980698557       4.48144364130463      -6.01423487933982
