31
C9H20ClN optimized with ForceField in AMS.
N        -0.40700522329106       0.19375129128711      -0.06741538845664
C        -1.00425616596436      -0.82689411605313      -0.98310572477130
C        -1.45174033042970       0.43805166582142       0.97388149346068
C        -2.46589241684216      -1.00066167133480      -0.61465048075798
C        -2.51072800896976      -0.63912486373001       0.84321903907561
C         0.82547300200691      -0.35299817219335       0.58843450056231
C        -0.13642093764881       1.45178424302850      -0.83517303750826
C         1.99753940188954      -0.64387810898838      -0.37869150853504
C         0.48131063696352       2.59061818070092      -0.00450934309400
C         3.13926164726898      -1.34977922357610       0.34910943874246
H        -0.52437852265562      -1.82528697792321      -0.87040432056787
H        -0.91601045855021      -0.55705961139005      -2.06119236647381
H        -1.96777618090353       1.41571586423294       0.83045750085399
H        -1.04533172805894       0.44654326566157       2.01184372171094
H        -2.81988049813689      -2.04038419821620      -0.78975346113006
H        -3.08972404864445      -0.28860701019879      -1.19910361437126
H        -3.51665031621881      -0.27234334121227       1.14382881271752
H        -2.23225617652327      -1.52208588876223       1.46066427141791
H         0.57027162656289      -1.29719750120571       1.12374066749590
H         1.19012429053829       0.34492115541215       1.37451121864094
H         0.53337038756556       1.25062559108070      -1.69960281238904
H        -1.08467230671771       1.83204643612595      -1.27961220626969
H         1.67114541765881      -1.28555796201190      -1.22259663019990
H         2.39715780994989       0.30171871297145      -0.79828575811264
H        -0.12301557108477       2.81662289695570       0.89709483886548
H         1.51947439483387       2.34866241366986       0.29930732627865
H         0.52276205180863       3.50995470969520      -0.62580543978762
H         3.52081607934519      -0.71209297990529       1.17485395983132
H         2.79266086130235      -2.31979722983772       0.76478695381225
H         3.97033041480629      -1.54609230095018      -0.36051542629913
Cl        0.60842541333931      -4.65897190825413      -0.86447784024172
