33
C9H10F6N2O4S2 optimized with ADF in AMS.
N         0.93486797368154       0.40771144637146       0.86353136100979
C         1.75554257780159       0.90041478791145      -0.27805562323652
C        -0.14583643272592       1.11138761722968       1.26195453667273
C         1.31773975748535      -0.71043154256121       1.52309986711334
C         2.87718591173683       1.81251962102775       0.17946057468415
C        -0.92074520075203       0.67057987849760       2.31780075848218
C         0.59038053638103      -1.17234186903020       2.59819449486649
C        -0.54823403012590      -0.47795867275943       3.00151838301443
H         2.13142730463514       0.00499651382318      -0.79568683352957
H         1.05774302674614       1.41054760680349      -0.95827137436482
H        -0.35271354910995       2.02866133569362       0.71633710909884
H         2.22386937461370      -1.19387149862551       1.16651260080471
H         2.48706993792854       2.67296257801132       0.74018257041620
H         3.42129405827246       2.16753134177641      -0.70821469109636
H         3.58017516165824       1.28914274102689       0.84068275559337
H        -1.77341735029212       1.27101718750547       2.63143664371589
H         0.93672581279408      -2.05697724831323       3.13012495810427
H        -1.12075661897581      -0.81533848632484       3.86591719175095
N         3.26199671004759       2.10901236191543       3.35466257007809
S         1.78970850564887       2.35142362813638       3.93436435490870
S         4.46323841739795       1.39673864547380       4.17056234201494
C         1.86669924535844       3.70773037081342       5.26327363070110
C         4.28638682215352      -0.44712863917173       3.79161632292200
O         1.03924586166623       3.00319045809385       2.84903126677496
O         1.16878619747344       1.22079493114658       4.62864742686788
O         4.36739934702366       1.46643427399980       5.62088000522872
O         5.69605276880686       1.72031973024999       3.46924300220016
F         0.62702693033201       4.25681664287235       5.36691640111079
F         2.74100905483190       4.67815787643477       4.91804435137841
F         2.20925520625030       3.20674646096499       6.46256173148930
F         3.15953645456533      -0.99314142710622       4.31294347616466
F         5.34951482768221      -1.10837323144313       4.29752115455996
F         4.26345681010878      -0.67165528464418       2.43584832200025
