39
C11H14F6N2O4S2 optimized with DFTB in AMS.
N         2.25344921328698      -0.74660507383694       0.15708767771248
C        -0.14808564744521      -0.34008724894947       0.46644510187017
C         1.20080349213660      -0.53746071799139       1.15785952969248
C        -1.25537634574160      -0.15060914434523       1.50827628251944
C        -2.61391013853056       0.04499441366975       0.83919970083431
C         3.09856412063116       0.25076588060529      -0.14066833919710
C         2.39855421888710      -1.96826749476378      -0.37917737503640
C         4.12129175524153       0.05108347447265      -1.04336045884111
C         3.41498498534276      -2.22083173982087      -1.27791074405235
C         4.29083161401350      -1.20147158590205      -1.62121240381457
H        -0.36787522317660      -1.21328425850605      -0.15569880920228
H        -0.09453932260200       0.53578052695092      -0.18816263042810
H         1.19286068570205      -1.41902162980683       1.80446159370988
H         1.47266597466202       0.33411503496001       1.75604832750127
H        -1.29069622008561      -1.02859035032653       2.16075320636870
H        -1.02287341904161       0.72035144285172       2.12920945641033
H        -3.38383642288046       0.17712248629766       1.59879626933502
H        -2.60188417457236       0.92730236300763       0.19812073124151
H        -2.86970534353758      -0.82369903558821       0.23152051376334
H         2.95303833474862       1.18983485918840       0.37801197860305
H         1.71014338455119      -2.73902800342334      -0.05452489240987
H         4.80095101920778       0.86434258815318      -1.26238352738463
H         3.53458415963018      -3.22228313590996      -1.67056755757046
H         5.10956455647593      -1.38467779689497      -2.30585011903618
N         3.25939284886771      -2.46105985458618       2.14397246650259
S         4.26485573722022      -1.45760230427719       2.89039745179402
S         3.68706689379533      -3.97143257828081       1.81127475196152
C         5.96281139648905      -1.42737294592300       2.08619577754302
C         3.94950034293948      -4.93207685134205       3.39781957992831
O         3.74848640003632      -0.13259705273879       2.59428393080695
O         4.51794858408448      -1.79485178084221       4.26621270737299
O         4.93072576298823      -4.07124762294647       1.08176845350003
O         2.51187246136113      -4.56273105318816       1.20889602147944
F         6.55774646353930      -0.29926301246404       2.44389050395653
F         5.83492928950875      -1.41910163728937       0.75892509009802
F         6.71087928015622      -2.44315958486328       2.45004123276235
F         3.87400294951403      -6.22389122917514       3.12640258520592
F         3.00721010160257      -4.61827080558805       4.26979024524688
F         5.13336300369340      -4.66458068538687       3.90924931225244
