54
C14H26F6N2O4S2 optimized with ForceField in AMS.
N        -1.89265351205013       0.14668732542466      -0.06139180655552
C        -2.11146742646303      -1.05541304822266      -0.92218446514740
C        -3.01632306546838       0.12117669639604       0.92630641591670
C        -0.58847138063104       0.03519261082212       0.67042466831102
C        -3.49988384509874      -1.59123735000319      -0.63510189478082
C        -3.72646840424823      -1.21305956677448       0.80058576817415
C        -1.97374162257786       1.38180436291728      -0.90712640609475
C         0.66648882068324       0.04102275169542      -0.23568166824382
C        -1.74582497628301       2.69783091099526      -0.14261529207744
C         1.93510318855551      -0.18113098404175       0.59855814847123
C         3.18791593847332      -0.20457352801951      -0.28555010056397
C         4.45363761337267      -0.36618375370132       0.56467806833511
C         5.70507287434150      -0.40009323275751      -0.30735123706666
H        -1.39507058546877      -1.87536834392973      -0.68725495932642
H        -2.00375100227563      -0.84617463134743      -2.01106358589612
H        -3.77664806892078       0.90961438816913       0.72119382918990
H        -2.68386050465493       0.27433532235933       1.97861761576007
H        -0.58000616105963      -0.90418136441590       1.27144005333811
H        -0.48788429196822       0.85879616472670       1.41162582753761
H        -3.56320277103976      -2.68823037988295      -0.78679121947085
H        -4.24583005568517      -1.08043346101358      -1.28354771160534
H        -4.80942462355093      -1.13501561719424       1.03945837519294
H        -3.24641851060130      -1.96217181960539       1.46946711421368
H        -1.24281904345128       1.33858028011295      -1.74380109702518
H        -2.97391984934276       1.44082058772688      -1.39558933343729
H         0.59630797930469      -0.75719248158404      -1.00409535333775
H         0.76132101355879       1.01839398733143      -0.75235830941089
H        -1.96334243317654       3.55154614069279      -0.81851318802450
H        -2.41228866595339       2.78105050764782       0.73963159553600
H        -0.69054646557396       2.79337192843340       0.18388519184447
H         1.85639344403300      -1.14781478597667       1.14347023334111
H         2.02766418664340       0.63840271409931       1.34533983370583
H         3.25219858217699       0.74455556050982      -0.86229140968994
H         3.11477663210757      -1.05117345704916      -1.00368850869110
H         4.53647180841697       0.48335065334644       1.27748570142916
H         4.39627062280759      -1.31102296466860       1.14822462005020
H         5.79546364177692       0.54174710541086      -0.88950455743018
H         6.60347238692602      -0.50685038751122       0.33661143538790
H         5.66437852971017      -1.26242031288063      -1.00645322754821
N        -3.20029706489690      -5.99243819817937      -2.55791019235684
S        -3.70532179783812      -6.08040891462591      -1.00047327505259
S        -2.65358012650922      -7.29911765243439      -3.38440813367357
C        -2.33141187931989      -5.74234608286072       0.08347591053353
C        -3.97294483941132      -7.95200888124262      -4.38701860898125
O        -4.77742099093520      -5.05442177843263      -0.76820323533555
O        -4.25137448747594      -7.44848887806942      -0.69993623071860
O        -2.17129993942414      -8.36364109587293      -2.43851355258216
O        -1.52562799267251      -6.87961849956054      -4.28338729477652
F        -2.76977775048994      -5.72170434711551       1.39402666850210
F        -1.77879408318193      -4.51675067205102      -0.23290421448071
F        -1.37090332282152      -6.72456148844890      -0.06254145226112
F        -3.52723295389510      -9.06847325092359      -5.06933665190780
F        -4.38141111466713      -6.99344441093487      -5.29507797824526
F        -5.03892309380605      -8.30319679368526      -3.58088394197470
