38
C10H22BF4N optimized with ForceField in AMS.
N        -0.51164631924071       0.00936101709511      -0.00193123633235
C        -1.43517322318479      -0.55975361128533      -1.03169680650082
C        -1.40975159151130       0.60700573054251       1.03402265876559
C        -2.83840231982933      -0.06643008094434      -0.73488010462110
C        -2.82794586737366       0.14939454375447       0.75246652456910
C         0.33546550169275       1.07442602245002      -0.63095419975295
C         0.30540192778328      -1.08167595213666       0.62258132304805
C         1.35495369478513       1.73403514530352       0.32709951555122
C         1.29596988099752      -1.77786261770572      -0.34068089354945
C         2.06862599136993       2.89973023520974      -0.35222307696932
C         1.97167148406715      -2.96519674709194       0.34065204300603
H        -1.15224879628526      -0.28877296580527      -2.07519049142951
H        -1.47152581136156      -1.67323194927715      -0.99652586434062
H        -1.12396612918740       0.33317956051744       2.07601745583317
H        -1.41685653641514       1.72096526902967       0.99417289057102
H        -3.01798306006838       0.90051519804176      -1.25528242426648
H        -3.61308582814008      -0.80471334378891      -1.03672640921095
H        -3.02624746297333      -0.81283928085762       1.27484785658351
H        -3.58039495234123       0.90702518445570       1.06240742555162
H         0.89122293489582       0.66574290908742      -1.50360672001431
H        -0.32223924278217       1.87267089958458      -1.04705008071477
H         0.88041851505149      -0.69046502464644       1.49083860161918
H        -0.37528116545344      -1.85684264001561       1.04528159449621
H         0.85448096992255       2.11244030446755       1.24223371138347
H         2.12673913007589       0.99923495823594       0.63104343665979
H         2.09131569754178      -1.07255886264943      -0.65685038175264
H         0.77607647947831      -2.14362716288304      -1.24995898569321
H         2.62815391519736       2.54163850324114      -1.24270435078492
H         1.33648839029751       3.67395248499152      -0.66547635286821
H         2.78849163787306       3.36019336456697       0.35702681032700
H         2.54212481663107      -2.62428010793651       1.23091872919893
H         1.21427711143089      -3.71429424034628       0.65528605152649
H         2.67583075535779      -3.45100945845680      -0.36723629787262
B         4.90813813500161       0.38462862658641       2.67361896195818
F         4.55800897339954      -0.99169732909716       2.68884802023902
F         3.72907683296696       1.17425553869492       2.71471552014645
F         5.63299823216929       0.67560987271927       1.48737104077497
F         5.71318775726112       0.68127332124856       3.80544333496523
