38
C10H20F3NO3S optimized with ADF in AMS.
C         3.53935068226279      -0.31392452525550       1.08316637454455
C         2.69255183540280       0.86980294923167       0.63956338793617
H         1.61587284195279      -0.86928635158325      -1.08699397518428
H         0.57694605708681      -1.65027287917701       0.14488219944985
H         3.29020065698048      -2.20936664997019      -0.05070000245648
H         2.48945816888536      -2.19643051256403       1.52813343970397
H         3.68707106845533      -0.26575980208620       2.17182037765892
H         4.52996377654862      -0.26424934521109       0.61043799556576
H         2.77420193806054       1.74765899819804       1.29828652289895
H         2.90933439461413       1.16331613834457      -0.39996890371690
H        -0.22889204992296      -0.38499943764482       1.92176806347240
C         0.69781610680419       0.19741382472695       1.98595910090236
H         1.43187665988497      -0.29201635053672       2.63169467502338
H         0.51779266681709       1.19735535860661       2.39242938627270
C         0.41923788722509       1.28058440296390      -0.22409228344642
H         0.63209549087558       2.27537589743662       0.19460527349564
H         0.83493886319151       1.23729985567705      -1.24323433052901
H        -1.49900688586322       1.11457508893034       0.77599915273396
H        -3.44248163639246      -1.09955241938577      -1.66923878444758
C        -1.58224255177603      -0.22161876410893      -0.94156610326325
H        -1.06564840301452      -0.33344015191320      -1.91235843016083
H        -1.33195894394388      -1.11680920043350      -0.34845235602225
C        -3.09301569665589      -0.18767948356825      -1.16323496207599
H        -3.37919898794266       0.67585744336412      -1.78352410220392
N         1.26372427782898       0.33450665620094       0.60484212687378
C         1.47013093273548      -1.03522795243991      -0.00926042649620
C         2.73921657914406      -1.57318707594105       0.65701412019154
H        -3.63061244684734      -0.10521267369078      -0.20527954715447
C        -1.08301909687032       1.04360137156287      -0.24321434629581
H        -1.49132659580559       1.92028168963469      -0.77922432408933
S         3.20909242290364       2.77381552950776       3.70515503467679
O         3.85614907537361       3.10698328610431       2.41821559063379
O         3.82837903775993       3.29880160900684       4.91855995570725
O         2.71311416110112       1.37762582599022       3.77282387326882
C         1.59465679164040       3.74444709987849       3.58653385992560
F         0.95755538714922       3.50245195660355       2.37147531995775
F         1.78926216212458       5.08076801631930       3.66221515402348
F         0.70389835412578       3.39064149152137       4.55262794712531
