57
C15H32F2N2O4S2 optimized with DFTB in AMS.
N        -0.54254475608731       0.68450624592166       0.25163666200867
C        -0.64737211552883       1.72277837532610       1.33953000829355
C        -1.80879199415047       0.70241063631558      -0.55034978131467
C         0.57436148748833       1.08094142372806      -0.68409690486581
C        -0.27422633506487      -0.65797837549286       0.86886332886305
C        -1.88110598368831       1.56259056397769       2.21557416941903
C        -3.05354797673696       0.47907256318077       0.30085373612861
C        -3.15934544230768       1.55232582508106       1.38358464038992
C         1.97681572594802       0.95491346210947      -0.09315881974719
C        -0.18514743619719      -1.82146998667835      -0.11312903126305
C         2.98219933253673       1.74083389033440      -0.94133107918792
C         0.26551966326450      -3.07154236748082       0.65464745902158
C         4.35688527058496       1.73490302442757      -0.26435428974744
C         0.38330472157912      -4.28086063226622      -0.27715988370961
C         5.38972303729885       2.49272786555331      -1.09503274107932
C         0.84717475329679      -5.52037347763649       0.48552501818203
H        -0.66129683846547       2.69762173934342       0.84497912787464
H         0.24733172218529       1.64737176887837       1.95405848220589
H        -1.72644033727880      -0.05946662372101      -1.32771311650868
H        -1.86150027085349       1.68408934390472      -1.03033423028190
H         0.37913359264986       2.11859497524683      -0.96854242031584
H         0.48159812064452       0.46185073450063      -1.58023848762362
H        -1.06241291965761      -0.85071637735291       1.59651279164607
H         0.66247796055884      -0.56366604824639       1.41643427828347
H        -1.88446297239273       2.40663826732386       2.90946148392044
H        -1.80992511466732       0.65218883986362       2.81355305065853
H        -3.03537960754189      -0.51569705237547       0.75323055358187
H        -3.91936425911975       0.52680180793295      -0.36499253417924
H        -3.30897290387772       2.53044101958868       0.91432904070070
H        -4.01980173784626       1.34631290467785       2.02397841550221
H         2.00083826142667       1.34753829836682       0.92282207892651
H         2.27929828026141      -0.09432975437087      -0.05450586969721
H        -1.15642411621715      -2.01341538807271      -0.57880497851434
H         0.53613493699787      -1.60942909472011      -0.90670540640581
H         2.63687235754484       2.77445114203273      -1.05324335527027
H         3.05207104247662       1.29944753089457      -1.94185222214273
H         1.23356844071619      -2.87503061149563       1.12589786439116
H        -0.45534680060430      -3.28772569612724       1.44951658679333
H         4.68810741476815       0.70089880088197      -0.12374119867490
H         4.26896659741705       2.19693805945606       0.72370076491324
H         1.09701390071013      -4.05556979581775      -1.07699753880499
H        -0.58860920192845      -4.47927441641203      -0.74212419981111
H         6.35304463761354       2.48571613546670      -0.58524657558351
H         5.51129293730153       2.02798003886414      -2.07483202028853
H         5.08041580188980       3.52903626681370      -1.23823179684383
H         0.92608024965675      -6.36868477726341      -0.19435570557824
H         1.82314197603021      -5.34555044254194       0.93944840251913
H         0.13719818032208      -5.77101653883733       1.27453047178474
N         2.18228765049774       1.20241416856084       4.79082612085371
S         1.85347339963413       2.58229829243927       4.07714903942838
S         1.62474757866516      -0.11056621751704       4.11702721724229
F         0.22125407093035       2.70842665234893       4.15212183084482
F         2.42280476189054      -0.22711684666391       2.67371201062393
O         2.33566992370866       3.63900749944340       4.89416089336588
O         2.10334107577226       2.63652790720258       2.66177074938405
O         0.24965915457541      -0.08161827474384       3.68821150861483
O         2.07927553726972      -1.23805293565398       4.85320522817353
