38
C12H19F3N2O2 optimized with DFTB in AMS.
N         0.77741276134214      -1.72998523368402      -1.17876484108267
N        -0.39761531865004      -1.04286905365431       0.49444751068142
C         1.90067466252711      -2.22107460463229      -1.97080002090668
C         3.03919296436191      -1.19638989153837      -2.00930006111535
C        -0.78396878076401      -0.72190410140126       1.86855325999019
C         0.77379269135916      -1.57851369719385       0.14858795619733
C         2.60103678451828       0.14471282007147      -2.60383478557252
C        -0.38134721617096      -1.20234405511752      -1.69226504123666
C        -1.12414757657026      -0.77830056580693      -0.63995339286427
C        -1.35768339154649       0.69117059858042       1.98553527766853
C         3.69817605417493       1.19352738704938      -2.43762547267723
C        -0.35193989668816       1.77098272004818       1.59338562796225
H         2.24870995437010      -3.15572408239387      -1.52121670429221
H         1.52989716313030      -2.42832235694657      -2.97857905164424
H         3.85049876668487      -1.62707967825362      -2.60380968825318
H         3.40729622277392      -1.03821950594752      -0.99349345804456
H         0.11551597013736      -0.82753714557160       2.48244089949945
H        -1.52800992427869      -1.45815019424751       2.19144563168880
H         1.50310024704067      -1.96533604385347       0.83945058425705
H         2.35287516598115       0.01659731617102      -3.66379542026464
H         1.70371497734214       0.49124698265600      -2.08304129913665
H        -0.58197736852364      -1.18717946836519      -2.74897475387641
H        -2.09914062642094      -0.32588904188512      -0.61083931745557
H        -2.25848341235339       0.77569274660573       1.36889819919988
H        -1.65822319519291       0.82980261088557       3.02852707100638
H         4.62790059377943       0.86003302083381      -2.90105700711772
H         3.87648396314809       1.37310245078381      -1.37745018020090
H         3.39051313522039       2.12950846569843      -2.90414841819607
H         0.03177348227446       1.59453031136206       0.58882435597659
H         0.48858735764638       1.77834106705185       2.28601261451773
H        -0.83437817169454       2.74782886067852       1.61975507118507
C         2.58114642312725       0.19272325019334       1.58650537875720
O         2.17125450586872       0.28875014226649       0.41930410671088
O         2.30538975412514      -0.63412826970949       2.44912361953490
C         3.60323938914883       1.34463736687817       2.01536666989255
F         4.42507066582298       0.97268193165474       3.00263682577917
F         2.93096334132514       2.43138488570672       2.44564315172235
F         4.37150288462314       1.74274891682679       0.98733767490984
