38
C10H22BF4N optimized with ForceField in AMS.
N        -0.55824043053582       0.30788530949577       0.15441761757548
C        -1.55025666798515       1.24423675807937      -0.46429336796820
C        -0.89771142533538      -1.10640304230579      -0.19061000462597
C         0.78138535158151       0.66538816852067      -0.42136683126413
C        -3.02154992574745       0.90377634163781      -0.16084019494726
C        -2.35053927372547      -1.49060746093117       0.14067498175555
C        -3.33434084769939      -0.54111708106420      -0.53365188640066
C        -0.53087050339963       0.50267150510009       1.63008166217084
C         1.98191038642622      -0.16532246973082       0.09538539953653
C         3.28874040586719       0.31540900330959      -0.54914723555742
C         4.48358043066577      -0.49384059916801      -0.05216810941604
H        -1.44194711456601       1.24428234382157      -1.57419712311982
H        -1.35939262281111       2.28950702990600      -0.12956310375359
H        -0.24268389704403      -1.81646930809984       0.35906725869489
H        -0.73463827122337      -1.28733776379377      -1.27778495721603
H         1.00151277665039       1.73988450898144      -0.21985536560249
H         0.75817082334953       0.55610102947176      -1.53078982682931
H        -3.67592911819255       1.57573423421785      -0.75706068662814
H        -3.26653615007571       1.08731995349417       0.90556669684004
H        -2.51374883817987      -1.49283672563775       1.23925239367560
H        -2.54288672796213      -2.52331694185053      -0.22170280800804
H        -4.36889199489014      -0.79049293776587      -0.21282357220553
H        -3.27591117774902      -0.66385520209452      -1.63733185865118
H        -1.53623660342966       0.42025310009779       2.08612194133503
H         0.08763449014945      -0.27017528636883       2.13348722225621
H        -0.12976059048018       1.50677561389918       1.89383289607606
H         1.84649004894188      -1.23767516247073      -0.15599385622665
H         2.08467646926690      -0.05972339713157       1.19477901193024
H         3.45667319587066       1.38497110467581      -0.29850887745715
H         3.22285376889980       0.21852306254145      -1.65532783286255
H         4.35569013817901      -1.56766754465763      -0.30567799667634
H         4.59204741193588      -0.38604557876296       1.04826025479951
H         5.41079671331489      -0.12233327441290      -0.53719854631272
B         2.49066911599816       3.69289807952182      -2.88020756125044
F         3.29452203109646       3.61663379317649      -1.71242786570806
F         1.19097182514535       3.19644710800407      -2.59607078784600
F         3.07944235108849       2.91479267076534      -3.91221205267033
F         2.39823396000456       5.04615364672887      -3.30105951754194
