44
C12H24F3NO3S optimized with ForceField in AMS.
N        -1.38098491763182       0.17832481372426      -0.06749596695150
C        -1.64818224599792      -1.01429784625543      -0.93000228047071
C        -2.48670589327670       0.18374015792007       0.93885303831893
C        -0.06736158143018       0.02311568513721       0.63938723943933
C        -3.01638494325891      -1.56513314506679      -0.57320346792584
C        -3.20900187882452      -1.14633079240603       0.85663579854736
C        -1.43669915713217       1.42119426402571      -0.90353768443840
C         1.16886193102014       0.03690684932717      -0.29154724418244
C        -1.16480246006899       2.72438642338945      -0.13096511116116
C         2.43729439247971      -0.35249810094587       0.47759274304526
C         3.66909166477297      -0.32688160079936      -0.43517736764731
C         4.93160966653470      -0.70433340460757       0.33469101138201
H        -1.60651864803011      -0.78756414172436      -2.02011481182262
H        -0.91553613227855      -1.83514982961009      -0.75367364661306
H        -2.13370708444682       0.35873873336583       1.98090683391782
H        -3.24356044994364       0.97391055588536       0.72738362270769
H         0.06452697366111       0.82525155271361       1.39913465558744
H        -0.06806937785722      -0.93180337161594       1.21517549155902
H        -3.79351745434668      -1.09258204916720      -1.21419222955058
H        -3.06148566571680      -2.67070042811981      -0.68444316789672
H        -2.72532454131094      -1.88240698177219       1.53654470278238
H        -4.28668555475605      -1.05012153273177       1.11385138891416
H        -2.43938710441257       1.51132530985061      -1.38158988881910
H        -0.71431569811849       1.36356804535959      -1.74585432841103
H         1.31476094921570       1.05604187873067      -0.70630906487157
H         1.03171344426137      -0.66878832140962      -1.13724365594081
H        -1.82023841762593       2.81919658934913       0.75833182898575
H        -0.10502474372209       2.78829846418433       0.18794616822036
H        -1.36363518807356       3.58925066177351      -0.79838380788877
H         2.31429949325733      -1.37565668379933       0.89630938282313
H         2.58806644231035       0.35918154585803       1.31926267190584
H         3.53025602040114      -1.04487626800223      -1.27292637579118
H         3.79948771364439       0.69134252760965      -0.86262633772609
H         5.80771667971115      -0.67282802152344      -0.34679787582888
H         5.10413336844503       0.01063080137944       1.16734779265851
H         4.83950604058383      -1.73182709691210       0.74712206383976
S        -0.23149270192326       2.23185712063577      -4.97544669308079
O        -1.53123557795746       1.47018096087874      -4.67763384323391
O        -0.36758900639353       3.50167534126227      -4.12268614960261
O        -0.45000666813910       2.74771371072958      -6.40537444498318
C         1.29772300421531       1.28711913223829      -4.72265673571657
F         1.29781558377616       0.17867385256153      -5.54676315009705
F         1.37720540897719       0.87861906680888      -3.40704026833682
F         2.38703966500642       2.08209284007044      -5.02149542504603
