41
C11H21F6N2P optimized with DFTB in AMS.
N        -1.15083833552364       1.14737545196040       0.16633439551466
N        -2.37559480639459      -0.51041550416659       0.78467521405908
C         1.24992764583528       1.70361105229149       0.02996091311166
C         1.84052879726244       0.37021125337822      -0.43324619070854
C        -0.15415788566033       1.94817254146607      -0.53745860647979
C         3.23606015681402       0.15606000485502       0.16032767888914
C         3.81471651356656      -1.19308949273404      -0.27477925117467
C        -1.49549670226851      -0.10530023427746      -0.12650466454130
C        -1.79522817591370       1.53156014353378       1.31159142439381
C        -2.57121771232737       0.48544076195262       1.69786047189663
C        -2.97063730616616      -1.84090151211851       0.84318635629112
C         5.19023704802533      -1.43084018655473       0.34542326017479
C        -4.29464543300876      -1.85641882937565       0.08978042201827
H         1.88677668710074       2.52821918083484      -0.30473051166554
H         1.20164493695497       1.72872916542296       1.12128960207457
H         1.89207306411708       0.35398334810817      -1.52844631781848
H         1.18902357290500      -0.44613440256034      -0.11188285334508
H        -0.43770763038083       2.99695839932610      -0.41587842054548
H        -0.19895998184723       1.68883596443754      -1.59923304956948
H         3.16646865695439       0.18370272611300       1.25169140877650
H         3.90084056370765       0.96737833158432      -0.15821371427589
H         3.89350444991435      -1.22426129255257      -1.36768818555181
H         3.13552559563887      -1.99153205256129       0.03824316367106
H        -1.12466769315025      -0.69291874641910      -0.94738076726728
H        -1.64416724849434       2.50049314629048       1.75346588243641
H        -3.21218188059215       0.35738477246514       2.55187484617564
H        -2.25542404327652      -2.54041668053001       0.40513917710108
H        -3.11041675820338      -2.09209867058809       1.89633491037567
H         5.11770926064119      -1.44304176623980       1.43344111006163
H         5.88719206345205      -0.64370036733285       0.05201048681640
H         5.58912352428269      -2.38978481939595       0.01333532828172
H        -4.99404997399275      -1.14691168722195       0.53166924094759
H        -4.72450451214442      -2.85535361634371       0.14396125711243
H        -4.14177062379196      -1.59389294827533      -0.95706484932329
P         0.36988767893208      -1.70294834559254       2.65810637503374
F         1.93833306573644      -1.79023377986041       2.19513740222368
F         0.35751779100500      -0.07079648588701       2.29235582725578
F        -0.09470780971482      -2.00673588148250       1.06151684668877
F        -1.24561461661785      -1.57734081317502       3.06489234339397
F         0.32438005174301      -3.30276225157777       2.95956666122014
F         0.79359916468037      -1.36516086109692       4.19113197997067
