43
C13H24F3NO2 optimized with DFTB in AMS.
N        -0.34392832623334      -0.05294896831280       0.13269649568632
C        -1.10008295052806       0.64758246732131       1.23364521197056
C        -1.19947095952772      -0.04092671041846      -1.09956130115599
C         0.01284055184114      -1.45116596440367       0.55762157804240
C         0.89395011399464       0.74692417230875      -0.18192946529227
C        -2.46261498727783       0.02784838907111       1.50711840294886
C        -2.55994839486823      -0.69432660211030      -0.88065499321228
C        -3.32047667223311       0.00588553353294       0.24557799606413
C         0.75940930222239      -2.28584059895758      -0.47839716857407
C         1.95273857994541       0.77288689751325       0.92027075791481
C         1.09388873829733      -3.64053455115557       0.14986204171795
C         3.05289248478191       1.76109921951979       0.53697620699749
H        -0.48741352454266       0.61848965041947       2.13533453317474
H        -1.21845765534181       1.68749173048421       0.91463485965249
H        -1.33376765869715       1.00811044601534      -1.37954793074256
H        -0.65022202249981      -0.54437606425043      -1.89732931611954
H         0.62396395419621      -1.35353640565940       1.45666268295081
H        -0.91194281814230      -1.95702776751151       0.83431099881659
H         1.31958003369244       0.33396899556052      -1.10061071860082
H         0.55613269642547       1.76551759102598      -0.39480868150184
H        -2.35519907842547      -0.97902211690950       1.91409382055405
H        -2.93543078383859       0.63386197202827       2.28308495971106
H        -3.11633528386744      -0.61311892587426      -1.81847497530544
H        -2.44223778254659      -1.75699193087218      -0.65477204566018
H        -4.25616541374188      -0.52288411085673       0.44012288621116
H        -3.56362748845774       1.02908217252459      -0.06056692111990
H         0.14893060832853      -2.44410147118513      -1.37234804062800
H         1.68631015680159      -1.79143435535052      -0.78120996381708
H         1.51373413724511       1.06900688962837       1.87449623073214
H         2.39085665813124      -0.21824624850204       1.05258598533620
H         1.66318598274147      -4.24397482534388      -0.55634040785856
H         0.18008291810618      -4.17341535883197       0.41165261035834
H         1.68508210054508      -3.50408118657783       1.05512213012893
H         3.81764775787786       1.76809318089640       1.31239988076731
H         2.64884723715999       2.76946612926042       0.43783728464736
H         3.51758322607319       1.47641388488879      -0.40824574323698
C        -0.23187910032797      -1.06145223961040       3.80301761338584
O         0.82618809386823      -0.60267962158863       3.36167595174015
O        -1.29354644349800      -0.53318568774346       4.09508737407462
C        -0.26098791662138      -2.68406057204538       3.82918233435686
F         0.91474950293875      -3.23033673954065       3.46286308501841
F        -1.16046696357759      -3.10056055795277       2.88984589939931
F        -0.62112182991946      -3.24796819503444       4.98479072406664
