31
C9H20ClN optimized with DFTB in AMS.
N         0.27291297348719      -0.03789767434766      -0.17704698065319
C        -0.59092364598168       0.85091668679043      -1.03075104163151
C        -0.47190711415821      -1.31236151883665       0.08970684826478
C        -1.94402360418076       1.14106141993627      -0.40355801207266
C        -1.84335840930592      -1.09034708449012       0.72118857165423
C         0.63725436524207       0.60663752612916       1.13358510536814
C         1.50111249054228      -0.34968580131124      -0.99950420644912
C        -2.70145357488199      -0.15817807105048      -0.13332660685211
C         1.44753090948984       1.88917664072545       1.02874957738976
C         2.57426002202415      -1.14635195380904      -0.27768893484176
H        -0.72838999732945       0.32508451554022      -1.97964841621549
H        -0.02495201959726       1.76753092608330      -1.23198221915990
H         0.14496292312513      -1.93415802735070       0.74168666827000
H        -0.58829816264868      -1.81832729039322      -0.87282933576776
H        -2.50534307674423       1.75644983497306      -1.11094969660137
H        -1.83390683821834       1.71624066889228       0.51926745701014
H        -1.74069673470027      -0.68678534107713       1.73203913411138
H        -2.32507810388102      -2.06842959168547       0.80518301027253
H        -0.29487250646825       0.81368112844360       1.66147512581075
H         1.18754862326716      -0.14385609046982       1.70682390961234
H         1.15056385360206      -0.90620103950539      -1.87224388546421
H         1.89992125506824       0.61427456806908      -1.34442308570674
H        -3.64078658999171       0.05285109046635       0.38311918300164
H        -2.93747175147642      -0.64822377781716      -1.08356135985005
H         1.64247002908565       2.23331105255502       2.04466151621036
H         2.39802038344031       1.73347387030523       0.52573675846868
H         0.90409612786075       2.66536353672379       0.49650785738284
H         3.35185754414857      -1.36981690243575      -1.00795691541689
H         3.02861100853873      -0.57659503102939       0.53076533062968
H         2.19855833621302      -2.08962304711568       0.11864216639860
Cl        1.81868621572905       2.67428896179168      -2.04808082147309
