51
C13H28F2N2O4S2 optimized with ADF in AMS.
N        -1.27438129866315      -0.18575137162755      -0.28809027397143
C        -2.20131592418287      -0.05132568272222      -1.48633314604338
C        -1.36132928931446      -1.61519113307658       0.23802199228749
C         0.13492098155318       0.06663076725089      -0.80691708914890
C        -1.63922866441843       0.77734665322855       0.82127073017044
C        -3.63571825514407      -0.44636479655226      -1.18267032766368
C        -2.78633215969633      -2.04854609205022       0.54473995633484
C        -3.69610719753656      -1.88561309977357      -0.67126199973453
C         1.24970658818711      -0.02927207178596       0.21702479163569
C        -1.47200435495440       2.24525609136115       0.48431950379206
C         2.58656978175740       0.24863539915127      -0.48142296870576
C         3.78444148000376      -0.18866944997692       0.35681411025718
C         5.10792301330374      -0.02885837408379      -0.38778905361243
C         6.29853362718693      -0.53048661873005       0.42471648063569
H        -1.78957172858121      -0.72765042925205      -2.25210292539698
H        -2.11313042650045       0.98365829427750      -1.84416881398341
H        -0.72056576392393      -1.66124506716611       1.12846252160689
H        -0.91277883089080      -2.24387406698620      -0.54943652929804
H         0.11142304118193       1.05470837570057      -1.29100424819288
H         0.28624873679841      -0.69838533245653      -1.58265860857124
H        -2.67973203492861       0.56158571522314       1.09052611235203
H        -1.00965105069179       0.49862893331177       1.67806373324238
H        -4.19939619224919      -0.34648347413338      -2.12521480891686
H        -4.10323217439101       0.25070037208972      -0.46449805327664
H        -3.19327017858342      -1.50093105865711       1.41343548504587
H        -2.73071541334268      -3.10753619920611       0.84780666390645
H        -4.73172801100980      -2.16311758030550      -0.41836748611831
H        -3.35260094675002      -2.55862679239584      -1.47628018869346
H         1.11142239791896       0.67525210421049       1.05537528497485
H         1.29229433465825      -1.05197356374408       0.62165444092988
H        -0.42531884063213       2.51455387230045       0.28737307239654
H        -2.08857552035976       2.55683566718614      -0.37019895621175
H        -1.80437545372737       2.82864715900544       1.35655559514807
H         2.66589875420590       1.32235026285491      -0.73538469905424
H         2.61201610563889      -0.30998879363954      -1.43164246302976
H         3.65033797538890      -1.25390161165282       0.61592644956994
H         3.81673199692288       0.37813638445858       1.30690252320763
H         5.04549611718578      -0.59136373609237      -1.33635977096775
H         5.25752543693273       1.03213367360729      -0.65942765767465
H         6.17458219032238      -1.59616756478083       0.67478472979084
H         7.24049066869177      -0.42236211430218      -0.13477078857043
H         6.39770275356451       0.02758342034053       1.36966899896931
N         0.30478470395634      -2.93115345575006      -2.21629405892278
S         1.81806660192628      -3.43547324340580      -1.96081897346412
S        -0.44249056496818      -3.21622399962831      -3.61638926788870
F         2.70468893063694      -2.32589510963990      -2.82344951414898
F        -0.79152027014628      -4.82064044406983      -3.52965650612094
O         2.12727638805404      -3.11478439421974      -0.57686694160663
O         2.17851969754338      -4.71134825968128      -2.53641471730568
O         0.35580518852887      -3.07190710740409      -4.81385343332559
O        -1.74567799896235      -2.56759572240960      -3.51244613623416
