43
C11H17F6N3O4S2 optimized with ADF in AMS.
N         0.55638945158534      -1.25740391328058       0.90740100292779
N        -1.32121883616444      -0.18982348349633       1.11357729969734
C         1.99388849765299      -1.55066012187343       1.01623966513615
C         2.78762361871235      -1.01191425277807      -0.16872765508792
C         2.75694585034864       0.50963153688325      -0.30498026118736
C         0.00455932512828      -0.09656049477882       1.28120893595931
C        -0.43829210423274      -2.11062776370947       0.48073998099907
C        -1.62161832871599      -1.44267146490271       0.61746362693625
C        -2.28877823637314       0.83658124609172       1.54575035683973
C         3.71500500595949       1.00609552878784      -1.38455197314648
C        -1.88205437736264       2.22648872721127       1.09217156684739
H         2.32062319783211      -1.10385002547229       1.97002962859459
H         2.08535436069042      -2.64236463128437       1.10573041039227
H         2.43131479836041      -1.48449277815368      -1.10260127853495
H         3.83077046441956      -1.34474002713989      -0.02323735606156
H         1.73329817806646       0.84191015301743      -0.55437600319811
H         3.00916790440659       0.97167405407201       0.66650665979171
H         0.54791122823332       0.76244236079445       1.67227532469169
H        -0.22737127871537      -3.12014297536108       0.15099175992911
H        -3.25799912135323       0.53902138173528       1.12098358428479
H        -2.34232577973090       0.78341901873354       2.64494553143882
H        -2.64038744141633      -1.75627779901074       0.42864743014038
H         3.46216591158565       0.57803406889584      -2.36779490908960
H         4.75261866452616       0.72021763608753      -1.15004706706881
H         3.67897197559692       2.10228041572960      -1.47168905473618
H        -0.95349309463759       2.54901674102673       1.58445029254049
H        -2.66961400284891       2.93796146677421       1.37956295725103
H        -1.75586149320454       2.26444035958913       0.00000163368471
N         1.43522375254607      -0.11130686179194       4.03294557533177
S         0.87668246498827       1.39926136246841       4.09996299484855
S         1.07304350859231      -1.20688897933900       5.17797148640853
C         1.78794642443027       2.27810760322495       5.53267231489381
C        -0.35512050226575      -2.18451438652082       4.41747742964671
O         1.40368810133483       2.05519843763108       2.88972841206039
O        -0.54806108323701       1.56011479718157       4.39032073395019
O         0.52847776793085      -0.64733498202465       6.40616367828268
O         2.14025343827874      -2.19545369198506       5.19312961250670
F         2.05473318662800       3.55094596505503       5.15373592841783
F         2.95163726823972       1.65403286178213       5.80899576580998
F         1.02309305337290       2.30826634542164       6.63566142804083
F        -0.84687525054823      -3.04870042119667       5.33017883371161
F         0.07531782185061      -2.90657321262381       3.34414055516986
F        -1.36908451449047      -1.38357655247121       3.99527267044890
