50
C14H15F18N2P optimized with ForceField in AMS.
N        -0.68861876280032      -0.90055489785584       0.40320462878747
N         1.50352387556708      -0.54259665980627       0.31264346857708
C        -2.09221176923274      -0.79196466786053       0.79816324994471
C        -2.90960799568753      -0.05001294578874      -0.26691453600702
C         0.35921004880734      -0.27018705936765       0.96891101010718
C        -0.18934576381547      -1.60095114843084      -0.63604582839232
C         2.82437747043313       0.01534114105339       0.58769213790406
C         1.17092016667750      -1.37557913824915      -0.69443846942927
C        -2.41885126561638       1.38270762923625      -0.47237363117140
C         3.14620998405884       1.12333561858634      -0.40830484379995
H        -2.17644640959633      -0.25424338165687       1.76827297910562
H        -2.51128271299867      -1.81103615827189       0.94173646312684
H        -2.86010147882935      -0.59901305438204      -1.23196889550572
H        -3.97300568917689      -0.02099702906613       0.05467005502795
H         0.28504725130323       0.40118615545092       1.81573373597038
H        -0.77252914269020      -2.21258244919305      -1.31220739139427
H         2.85268315336483       0.43464394295413       1.61710812992381
H         3.58895433398965      -0.78753201225880       0.52079400750763
H         1.86190848181886      -1.77550283937872      -1.42532374219360
H        -1.38711257818625       1.38559595939285      -0.88366244120086
H        -2.43185496250638       1.93849938137409       0.48914500062446
H        -3.08382140814945       1.90302103029366      -1.19316197339985
H         3.14828350943968       0.72136933990737      -1.44340395532341
H         4.14681865381889       1.54996482800946      -0.18813031783484
H         2.38855520715198       1.93217302140851      -0.33168613036142
P         8.35187285593637       0.85729414880581       2.46970837670155
F         8.08923658994418       1.44872961752038       0.87476943278864
F         7.07599204439838       1.30893644488296       3.53688067817973
F         9.57000804447410       0.05322754202347       1.55833016129018
C         6.89978587961101      -0.28633694055129       1.88648472147323
C         8.88873678694132       2.71630350696333       2.48997591409574
C         9.43736367354598       0.07515335480251       3.86437730377861
C         7.12423596262283      -1.14265170572141       0.61039997770949
C         9.27378929215892       3.32244199560098       3.85593031395664
C         9.31670021789727      -1.44707971385136       4.07639133953463
F         5.78499444252272       0.50125380213317       1.63339967387066
F         6.55182381072111      -1.14816240881557       2.90673545778725
F         7.85155250227573       3.50856712077917       2.00552599815288
F         9.98311473005058       2.87402556798105       1.65142083859499
F         9.09017714221898       0.65376767711879       5.07232634626678
F        10.77564873666677       0.36732349478354       3.63795602758116
F         6.05642007214113      -2.01051380638209       0.46575633856979
F         8.27249531878674      -1.90176354392411       0.67914730543312
F         7.17545199942930      -0.35459857743346      -0.52579083484960
F         9.47197273959271       4.68307179402174       3.69594112853385
F         8.26952506233878       3.15097062957142       4.79015917978470
F        10.45371279607428       2.78907798011171       4.33334469469180
F         8.12635745100443      -1.76058780758651       4.70452696972739
F        10.34386590223779      -1.86731007768578       4.90283533952999
F         9.41670851046352      -2.14586049304888       2.89391043362350
