34
C10H21NO2 optimized with DFTB in AMS.
N        -0.06404495100239       0.49699694028926      -0.12888275602538
C         0.93829827476099      -0.55508140424646       0.22505850455068
C         0.76147059762776       1.74940355630156      -0.17384485579525
C         2.20820006727538      -0.17806704926901      -0.53393185868736
C         2.10725925943778       1.33944855412743      -0.75863107051160
C        -1.12432412096964       0.62008161473921       0.92520733093206
C        -0.64445600404647       0.20864669333184      -1.48504137135718
C        -1.94947589121509      -0.64092734807313       1.10886656280118
C        -1.78985707866793       1.13238867491256      -1.87945329976143
H         0.55568910008345      -1.54195651673540      -0.03614528344400
H         1.09907013105242      -0.50080785231683       1.30395782779512
H         0.85339515156151       2.11259282315478       0.85401839688757
H         0.23408164242256       2.50839749563990      -0.74885994404393
H         2.26226661247078      -0.71127327278567      -1.48575011778806
H         3.08940143783807      -0.44291682933534       0.05288092728562
H         2.91177477017187       1.87077406684327      -0.24728795350150
H         2.16992191552632       1.57709052055575      -1.82293834736763
H        -0.61418150308990       0.88465226957130       1.85349351398450
H        -1.74494621432911       1.47292795077768       0.63876580821171
H         0.17598653116530       0.30319890771938      -2.19988044585857
H        -0.97957258386518      -0.83215818060315      -1.48475620152124
H        -2.67347837584387      -0.44738012835454       1.89997288570917
H        -2.49754713519738      -0.90823634001555       0.20638390454036
H        -1.33267641121607      -1.48785677049844       1.41029159643321
H        -1.89678205775895       1.09986997331840      -2.96359677802472
H        -2.72824125932746       0.80895689241370      -1.43243257450211
H        -1.60361932397821       2.16179423417332      -1.57624303930174
C        -1.67979617091465       5.20173018622586       1.83900708553884
C        -1.18387970757174       3.83476107167077       1.31429829328176
O        -0.44783686995522       3.17838015134702       2.07962710816795
O        -1.56058918464919       3.49746655245764       0.16700065926252
H        -2.41038019471165       5.63126767630703       1.15638991378433
H        -2.12136892696194       5.07001919018452       2.82561970089692
H        -0.82488831332212       5.87094674047134       1.92913992232820
