64
C18H26F18NP optimized with ForceField in AMS.
N         0.97863362648607      -0.31425408413773      -0.00761042630928
C         2.05621678116085       0.06953887497004      -0.97159485630493
C         1.63969499233731      -1.24410142014186       0.95852702839049
C         0.48628123638921       0.89710088294900       0.72673130329375
C        -0.11802309945322      -1.02526833108150      -0.74296980350942
C         3.26351195479152      -0.81128813360585      -0.71191263505778
C         3.13791122250326      -1.16379539281639       0.74241044219499
C        -0.25262376267488       1.92931444486288      -0.15896892565547
C        -1.31016914617476      -1.46040209933181       0.14331040080901
C        -0.56073356904418       3.20574133722424       0.63299965521035
C        -2.30503119754571      -2.30834816615073      -0.65942606326423
C        -1.29813130078333       4.22643119527880      -0.22906285579418
C        -3.49148878903789      -2.73269815158961       0.20141287261760
H         2.39195264838405       1.12310917179980      -0.83239377841450
H         1.74697304733455      -0.02134486872674      -2.03823190739374
H         1.34730389309529      -2.30601261056432       0.78730943320267
H         1.39857560825467      -1.01977154976981       2.02296566528054
H        -0.19282740819604       0.60204598281412       1.55720386530941
H         1.34704032740585       1.40658962117512       1.21987301815180
H        -0.50954863450000      -0.39032251771836      -1.56848952105135
H         0.29759422130146      -1.93132010565533      -1.24283526013006
H         3.19899235795167      -1.73330966498316      -1.33150831075188
H         4.21855226189584      -0.28274284234413      -0.92413343288331
H         3.56728022063179      -0.34982656822902       1.36794003323005
H         3.64499170661921      -2.12525493745357       0.97657433077432
H         0.36082950328681       2.19473786956455      -1.04528902353452
H        -1.21368592572041       1.50444930093717      -0.51601751827960
H        -0.95377842353224      -2.05041453538701       1.01365129500498
H        -1.84725948754680      -0.56732920457688       0.52448696581299
H         0.38609421148075       3.66132818607445       0.99614145522706
H        -1.19227163941126       2.95577926876568       1.51334233969515
H        -2.68209142526610      -1.72190006741087      -1.52556637599111
H        -1.79829431376951      -3.21972578594341      -1.04471715823289
H        -2.25741427508990       3.80238038699682      -0.59513902329299
H        -0.67176339116882       4.52145020898955      -1.09764560384039
H        -1.51797421951060       5.13232486604038       0.37431195333132
H        -4.02303594342929      -1.84007566496978       0.59473218694239
H        -3.14628034716645      -3.35870448397891       1.05154392834869
H        -4.20165609817329      -3.32617461744703      -0.41180400672112
P        -7.12395397246836      -4.54905828747472      -4.78878458069157
F        -8.38986622713492      -3.70660113583157      -3.98218758896569
F        -7.39862045262953      -6.25046752186218      -4.80896877188905
F        -6.78734741136896      -2.90308243836914      -5.15956897117159
C        -8.56361170626801      -4.72533611293261      -6.07614576809905
C        -6.77072962665862      -4.72435276593933      -2.89379299171341
C        -5.35971305396820      -4.67201036000683      -5.56854448474179
C        -9.19247445358791      -3.42027884778889      -6.63594522259180
C        -5.59835641343217      -5.63761505731996      -2.47771447292889
C        -5.25460271539194      -4.49988593249674      -7.09654868599668
F        -9.60500341838274      -5.43750031933222      -5.49338428678977
F        -8.12984910656051      -5.46939217633867      -7.15507944956736
F        -7.89455928207886      -5.24043947918296      -2.25472689631964
F        -6.51165504288174      -3.46623804128018      -2.36840271958309
F        -4.84041444681130      -5.92459356098300      -5.29454886469316
F        -4.51823024421290      -3.73937519733847      -4.97748771730826
F       -10.08007659404610      -3.75424541326473      -7.64375332921243
F        -8.25101263507785      -2.56980501476809      -7.17407763664898
F        -9.90444012001905      -2.74184838147350      -5.66314337122581
F        -5.60827633358338      -5.77130739356249      -1.10007927260754
F        -5.71965828536945      -6.90215207810543      -3.02278696327398
F        -4.38045207977929      -5.09051448742610      -2.82843760984497
F        -5.74026749529147      -5.61640498496392      -7.75015949043550
F        -3.92104728049685      -4.36622464333745      -7.44133222413364
F        -5.91628332751537      -3.37651252754959      -7.53935563708119
