34
C10H21NO2 optimized with ADF in AMS.
N        -0.09865696480876       0.41601552313834      -0.03339754478007
C        -1.47960089626266       1.01490547388538      -0.28983291674101
C        -0.09232984635706      -1.04954895763816      -0.38045287009503
C        -2.58671277718951       0.24606464784599       0.40469071716676
C        -1.20386532264321      -1.83600315397155       0.30049795181313
C         0.88465511935231       1.18263047203932      -0.91749975604818
C        -2.57751350324825      -1.23087730972166       0.01280419206569
C         0.27355551801965       0.65919182971161       1.39929157578575
C         2.28788356032876       0.61418211545719      -0.94748907150091
H        -1.61061817670395       1.00481985471060      -1.38233839258481
H        -1.38098923357500       2.07030458987554       0.02271080435755
H         0.89691130050487      -1.44581047758756      -0.11270268525772
H        -0.20288323117062      -1.09451979386034      -1.47655836618007
H        -3.53600289977714       0.72497958541575       0.11175981525248
H        -2.51807306832038       0.35483331545244       1.50092237581981
H        -1.02692282517150      -1.88030108368507       1.38910851718903
H        -1.14222110160686      -2.87467002420948      -0.06570072365139
H         0.43319573544136       1.20830717291145      -1.91933806521936
H         0.83296280922301       2.21414369633107      -0.52588128402584
H        -3.36025898133512      -1.78976348190095       0.55032973268812
H        -2.79565461484480      -1.32008785879214      -1.06731104446697
H        -0.44665739780024       0.15768046201772       2.05332912014237
H         1.27623448724316       0.25258242252453       1.57857259186673
H         0.24346485506351       1.75304906821592       1.53721352083833
H         2.90182846276378       1.32133697486629      -1.52629891308367
H         2.74578663562189       0.53963427247594       0.04966915197942
H         2.35619984513426      -0.36439044280615      -1.44598792469273
C        -0.64063515422185       5.77636605793903      -0.43332902640028
C        -0.50509556770671       4.24885074457108      -0.51745887421226
O        -0.72520161261438       3.70063927270531      -1.63028091083706
O        -0.19769514460431       3.64898826511590       0.57820076709121
H        -0.50271662011757       6.23222969421232      -1.42355781696874
H        -1.65555043303031       6.02311541891543      -0.08137788890944
H         0.07244536191367       6.19854005273890       0.28899894609919
