35
C11H20N2O2 optimized with ForceField in AMS.
N         1.02886966016830       0.35210690616586       0.39166035976234
N        -1.00343336603210       0.32228798897895      -0.50921294498059
C         2.26907656683797      -0.09725860567821       1.02093768844472
C        -2.26887075426756      -0.16730657778394      -1.05146616350304
C        -0.00458827761516      -0.42052948907649       0.00536833011716
C         3.46516828683131       0.08489014291825       0.07996843422040
C        -3.41922747616337       0.06934440861610      -0.06691735190280
C         0.67404678901595       1.62224097460521       0.10964447899401
C        -0.58815372271510       1.60364656061030      -0.44932987554667
C         3.32860656762428      -0.76068329568176      -1.18532991946556
C        -3.25006087205796      -0.74694496324895       1.21359449216293
H         2.18580432307475      -1.16895299995958       1.30748254444370
H         2.43822220625975       0.48527812990925       1.95208207361838
H        -2.19155624711171      -1.25317449381086      -1.28009738611523
H        -2.48584758190951       0.35806208605588      -2.00660468292911
H        -0.03107419948589      -1.49941687086047       0.10001653466496
H         3.56954489445021       1.15589563133513      -0.19835713092280
H         4.38956737778587      -0.22119436245013       0.61581847240449
H        -3.48599790135353       1.14952990187560       0.18681150452122
H        -4.37222937793553      -0.22830664371043      -0.55546839561999
H         1.28169156259976       2.49631961460371       0.30529599019548
H        -1.15967876843482       2.45935976602496      -0.78495639278778
H         2.47443657727954      -0.40419209686307      -1.79939644614249
H         3.17039296486374      -1.82843821438837      -0.92227263696995
H         4.25596988013119      -0.67741214904578      -1.78995261539277
H        -2.36876874469418      -0.39015643072597       1.78646372907125
H        -3.11848979894006      -1.82358937044403       0.97264720010972
H        -4.15307196591524      -0.63366988931848       1.84935792691783
C        -0.69978748673142       2.15702415899991       3.35860328557938
C        -1.18210491226459       1.25560486228572       4.45010558215149
O        -1.02941909661545       0.04863200256135       4.35525367090221
O        -1.72856147981174       1.72151056899474       5.43694417440530
H         0.40043038400633       2.05493680068562       3.24896423080546
H        -1.19134760021588       1.87789774316680       2.40426243368221
H        -0.94188045615815       3.21690816825316       3.58752702730415
