46
C12H26F6NP optimized with DFTB in AMS.
N        -2.29972584312986       0.11966910098662       0.62851005271128
C        -2.74822325416825      -0.88526280331392      -0.39425438870035
C        -3.23638767121907      -0.14352066698587       1.77328396276395
C        -0.89464755587508      -0.15796157840753       1.07435611066120
C        -3.09247329301543      -2.14416840261472       0.39550837061713
C        -3.39386603974931      -1.66028441857336       1.82154722822150
C        -2.46348088205288       1.50710931621199       0.08663934227658
C         0.18250104854690       0.13560773537087       0.03126574476707
C        -2.10889960392262       2.59942065558465       1.08284928920945
C         1.53754523488215      -0.36773210317166       0.54384823009577
C         2.64991125378981      -0.07484311434431      -0.46757852073342
C         4.00563916883982      -0.57617993184039       0.04013230250327
C         5.11738326837393      -0.28522483006622      -0.96620489988045
H        -1.96710641915871      -1.03241633880819      -1.13896213752915
H        -3.64052719681893      -0.48107050272601      -0.87414156010596
H        -4.18768450403768       0.33312967274875       1.53173851995188
H        -2.82875887846307       0.28017557451272       2.69099928612379
H        -0.85558709105533      -1.21271601933449       1.35492792681812
H        -0.71270606852812       0.43882637718244       1.97149927028042
H        -2.26414908033302      -2.85633018376097       0.38822084668753
H        -3.96529347172362      -2.62125613713920      -0.05189024319610
H        -4.41314032664633      -1.91012827257527       2.11764041727852
H        -2.70367610205902      -2.10550439572786       2.54215289802569
H        -1.84458451643819       1.58274753552343      -0.80993501932741
H        -3.50997140018744       1.60558482497961      -0.20562265467228
H        -0.05040313135318      -0.35998926150960      -0.91465222557569
H         0.24922101529707       1.21017140443687      -0.15694563543802
H        -2.32028979503033       3.55880217038896       0.61139638815100
H        -2.71486535670044       2.52168315818259       1.98393727425961
H        -1.05562938678631       2.57927659027369       1.35932665476551
H         1.48026525152102      -1.44634499921303       0.72463240064336
H         1.76926946998400       0.11984877299459       1.49676785977849
H         2.70205673037791       1.00427642852959      -0.64781901931459
H         2.41215856748705      -0.56144261513078      -1.41955735352012
H         4.23924609093803      -0.08950113176624       0.99307234212707
H         3.94959071234149      -1.65499427684764       0.22025010302206
H         5.20088629205653       0.78770115811624      -1.14417579467676
H         6.07078121644472      -0.64938106102887      -0.58350926240534
H         4.91205239240761      -0.78000422909646      -1.91635118588456
P        -6.64892149439113      -0.22981145237166      -0.25278767471778
F        -7.86157658139252      -1.30643788387649      -0.20545349768260
F        -7.06916234375863       0.28119301733154      -1.73990027964346
F        -7.55647604372456       0.92408679384490       0.45291779087141
F        -5.33365701546426       0.85022641772706      -0.27537126581455
F        -6.11943907187698      -0.73078359782402       1.25212201338547
F        -5.63591013692777      -1.37229009667233      -0.93404770577854
