28
C8H17NO2 optimized with ForceField in AMS.
N         0.58159696421616       0.00503862573553       0.01755588645956
C        -0.30136532295603       1.07589736965754      -0.52075920798773
C        -0.31550456765177      -1.06620438518475       0.53068428259466
C        -1.73045068665816       0.74654769756994      -0.12767110111828
C        -1.73000078115558      -0.74627506816817       0.08164303109035
C         1.42915699961378       0.53646844860746       1.11129320901765
C         1.45911250820045      -0.52639646877949      -1.05243048542621
H        -0.25767501694763       1.13277726259101      -1.63311931846689
H        -0.03483249844920       2.09090279946380      -0.14539039538189
H        -0.31395235967537      -1.11450687338103       1.64483590401473
H        -0.02998324763402      -2.08250905553953       0.17301606718694
H        -2.45343511661683       1.04597069203333      -0.91791841537523
H        -1.98707995193351       1.25977144280241       0.82544922024829
H        -2.48133805537712      -1.05016316403151       0.84318831310147
H        -1.94587072745495      -1.26135817677734      -0.88047778990501
H         2.10430267965822       1.33852422687253       0.73720086373092
H         0.80339028821141       0.96937467665032       1.92409718678981
H         2.05893457719031      -0.26879258010864       1.55166590196593
H         0.85595298263060      -0.96070353478585      -1.88144226560155
H         2.09953082352434       0.27929679947481      -1.47633772702627
H         2.12510298477325      -1.32719343456054      -0.65963910904450
C        -1.09697439462099       4.52008502062199      -3.98691288426784
C        -1.89008105047071       3.28680868555767      -4.28393538895206
O        -1.47550884159791       2.19539429929970      -3.92922185824021
O        -2.95126987735929       3.36618408568058      -4.88175884576555
H        -0.97146452547666       4.62806400600980      -2.88906881112613
H        -0.09687235783635       4.44398940024867      -4.46290042629914
H        -1.61281406204643       5.42242610013978      -4.37984447091581
