37
C9H20F6NP optimized with ForceField in AMS.
N         0.25671078880014      -0.12337147770815      -0.19279767355975
C        -0.60712695723601       0.68653809851782      -1.11089918668755
C        -0.50294888661341      -1.34405608917517       0.23274509424144
C        -1.97175052099233       1.06745702118472      -0.51219473011722
C        -1.88625025470114      -1.04262650454778       0.84541745486808
C         0.66932699341290       0.66066764941575       1.02322993531841
C         1.44828379513550      -0.55921851152362      -0.99951902183254
C        -2.73388113497190      -0.18228886696082      -0.08612426626283
C         1.52196925165499       1.91209688691809       0.74954974098389
C         2.52746504197758      -1.34389862182317      -0.22986725827709
H        -0.81224250442225       0.11259344685244      -2.04502887970725
H        -0.09058736702756       1.61104364830952      -1.44355946213281
H         0.06761278139906      -1.92241800836927       0.99154102776606
H        -0.66412060784278      -2.02415389591976      -0.63530793720312
H        -2.56792048853318       1.60129767046683      -1.28335644421343
H        -1.85645969143506       1.76552358159271       0.34259128376796
H        -1.78298128124158      -0.54942101363079       1.83465414598332
H        -2.41814222553085      -2.00254711606231       1.02151972830311
H        -0.21067970786184       1.00319646518809       1.60048383685172
H         1.22659698442317       0.01240879125720       1.73352714546266
H         1.12278127479564      -1.20400257001143      -1.84789446026059
H         1.93980401092260       0.31371839532380      -1.48199020877286
H        -3.67131264633764       0.11326330743422       0.43224510311883
H        -3.00883524109311      -0.77329993867567      -0.98702307276764
H         1.81373711189113       2.36598871938438       1.72012142605890
H         2.45689540274350       1.66831445951762       0.20953146554541
H         0.95068817585743       2.68094503182637       0.19202589097123
H         3.32960257641948      -1.63953535507136      -0.93814371502348
H         3.00276004214561      -0.72546885763887       0.55749607973472
H         2.12185003359659      -2.27564669685915       0.21153249980067
P         5.90593680978792       3.91161756632918       1.01450524401867
F         6.49186230196075       3.31842228141933       2.51643998469723
F         4.54880367266692       2.87995844543933       1.20960598280865
F         5.04949953208218       5.17638385618231       1.80086805835042
F         5.30283970247965       4.49359377731285      -0.48528662902928
F         7.30246046757561       4.90603254634049       0.90846607768615
F         6.71764013601228       2.66413959946427       0.15644067810988
