26
C6H11F6N2P optimized with DFTB in AMS.
N        -0.93570955007399       0.02457915204690      -0.25679997271610
N         0.68979741063140      -0.01633020304967       1.15214587117258
C        -2.19023812150462      -0.33373924001705      -0.91574825330011
C        -0.31305004215937      -0.72746528070729       0.64546047427493
C        -0.32999282137737       1.25141525177713      -0.31302957276640
C         0.69516288792441       1.22612634433261       0.57813987773495
C        -3.32920152535495       0.52006361292792      -0.36858250124824
C         1.50213679320336      -0.42464607745345       2.28616866761324
H        -2.06655013950261      -0.18860740853237      -1.99342568359620
H        -2.37270695583718      -1.39038618970931      -0.70782043258115
H        -0.58561610740994      -1.72723788415488       0.93373828836816
H        -0.67025153454624       2.02969378090514      -0.97319127917325
H         1.41649576266457       1.97749525471769       0.84768843771330
H        -3.40011924828577       0.40252726704918       0.71102928279672
H        -4.26247012422880       0.19188348065664      -0.82381259590705
H        -3.16955969847423       1.57181326484579      -0.60351723506823
H         1.48854457053838      -1.51008835219646       2.35487962070262
H         2.52000032483110      -0.06104401293156       2.15399972436820
H         1.06324087221172      -0.00362564504921       3.19180124510695
P        -2.39673231928667      -0.92725836235693       3.23476610432165
F        -2.07862113808367      -0.23390194307998       4.67217692431863
F        -3.89125464028276      -0.27643592628643       3.18192515352477
F        -1.79157614374336       0.42939989909473       2.45265500301753
F        -2.65227528769381      -1.61928890795699       1.72015108045676
F        -0.84323646130637      -1.57030245383336       3.20098189622244
F        -2.94637567265320      -2.28050786833881       3.94315517804329
