34
C10H18F3NO2 optimized with ForceField in AMS.
N         0.00733313451253      -0.00365349714642      -0.00123445431936
C         0.93225122211963      -0.84015422705468      -0.82648738284328
C         0.90167614553206       0.85274965972865       0.83655880422027
C         2.33998703574404      -0.29861860227356      -0.66494788116990
C         2.32305340423241       0.34585149163487       0.69176105452274
C        -0.82501604480693      -0.87658440062962       0.88907965617043
C        -0.83148679915117       0.85190875578733      -0.90237274698381
C        -1.80679977959286      -1.79977587832320       0.14392752642541
C        -1.83897827971525       1.75760791133454      -0.16951233043806
H         0.65922391620846      -0.86290973332672      -1.90626635160502
H         0.95568349984207      -1.90143804913064      -0.48809496386380
H         0.61551785482540       0.86754794563906       1.91304270367405
H         0.90492952975203       1.91478786712282       0.49963847368763
H         2.54310043171665       0.46700348399766      -1.44597826403339
H         3.10530286307913      -1.10356037388137      -0.72191846339242
H         2.53748234179132      -0.41375272712596       1.47562848001499
H         3.06211560632819       1.17274236926460       0.75755682742789
H        -0.16346937097183      -1.51783393267167       1.51626845012842
H        -1.40964543902839      -0.26329393777853       1.60941737216146
H        -0.17519149109128       1.50485775931440      -1.52296036000241
H        -1.39592223417520       0.22673032290821      -1.62848764911098
H        -2.27145110428754      -2.49917493965622       0.87031598982576
H        -2.62583949928986      -1.21906235980443      -0.32641071131936
H        -1.29497456066637      -2.40367277287378      -0.63224546940821
H        -2.30808767509314       2.44761131259586      -0.90195140031391
H        -2.65207960927884       1.16237019225880       0.29280157072078
H        -1.34812861172315       2.37242522593994       0.61164296485595
C         7.22402055752864      -0.42319889208292      -0.16141047951871
O         6.56092128430971      -0.44944494484827      -1.18633396179759
O         8.22233748684125      -1.11939517315383      -0.07110724808237
C         6.82156054791165       0.45745976280465       0.98405822836081
F         6.58929358908665      -0.31887093667706       2.10446763032611
F         5.67072702651858       1.16008848052428       0.67590281438136
F         7.83663428969141       1.35621878568322       1.25521871499853
