25
C9H14ClN optimized with ForceField in AMS.
N         1.09159369946472      -0.03607528953913       0.55069271240972
C        -1.26378208466407      -0.00360348972105      -0.14409821595773
C        -0.29230157657554      -0.05910617220053       1.03897519751489
C        -2.72114408780343      -0.01170263802442       0.32760086437200
C        -3.67903708913247       0.03653157252062      -0.85969552028955
C         1.72617440955750       1.16184274394095       0.36682912728497
C         1.72176515800419      -1.20989253031205       0.23916324721014
C         3.02703501569757       1.20456315906205      -0.13983799979539
C         3.02071613809950      -1.20251853089658      -0.27575900403004
C         3.67462673218909       0.01396602300745      -0.46670142608064
H        -1.08356988645562      -0.88109510371523      -0.80325729455185
H        -1.07104474318148       0.92203651531220      -0.72983470497581
H        -0.47449218173281      -0.98167877685428       1.63476799848697
H        -0.47464373293861       0.80389860320925       1.71819281847990
H        -2.92093141485041      -0.93432020877533       0.91502836467192
H        -2.90956334138236       0.86962203700266       0.97879318467560
H        -4.72754010802047       0.02773840347692      -0.49480819966979
H        -3.51561090048726       0.96391778199906      -1.44932515640976
H        -3.52391858970381      -0.84617140524505      -1.51635675183030
H         1.22291437004202       2.09247427026037       0.60146447544501
H         1.21615676690907      -2.15844920282920       0.37708343407130
H         3.52421453229886       2.15456595816114      -0.28199557583662
H         3.51258612393213      -2.13272503646740      -0.52914272126274
H         4.67951746882105       0.03402922508078      -0.86920846482764
Cl        5.26870840851267       3.17740937504681      -2.50661473330456
