48
C14H28F3NO2 optimized with ADF in AMS.
N        -0.03668057336992       0.10479936531722      -0.14737594436686
C        -0.79418190807469       0.69957364630485       1.01947072985873
C        -0.98415981326063      -0.51343233213862      -1.18000033712460
C         0.89180213935490      -0.98364915684115       0.36454208396558
C         0.75560223464419       1.20438153142402      -0.84831131980640
C        -1.71819976938475      -0.24645464791483       1.77267461210500
C        -2.14222292610156       0.36682553090526      -1.61971618881987
C         1.89449551656031      -1.51839657749884      -0.64584954787504
C         1.79672417545921       1.91705160869050      -0.00306638847440
C        -2.43529279883446       0.51343530424018       2.89060172696019
C        -2.91874274004069      -0.35667436449364      -2.72303992126747
C         2.62566522043902      -2.72620212183787      -0.05999336208226
C         2.57406270821566       2.88105104948082      -0.90474437997379
H        -1.36223088547114       1.54811378911611       0.60998004654771
H        -0.03523279449337       1.10383429394927       1.70462817366655
H        -1.34861641215475      -1.45228814171943      -0.73450417658257
H        -0.34351648473167      -0.73435833334586      -2.05174073453108
H         0.23845752230930      -1.79671916259176       0.71335220492756
H         1.40758790653297      -0.56749667316291       1.24472982145978
H         0.01339314598876       1.91357079872670      -1.23780120148455
H         1.18616023148599       0.72587832677830      -1.74474299116855
H        -2.46390364213169      -0.68328585687647       1.08970362091939
H        -1.14657232351479      -1.08015515593228       2.21121852273352
H        -2.82058300798535       0.59481892114625      -0.77942770393026
H        -1.75404609160681       1.30504609169713      -2.04578472053162
H         1.39970334258790      -1.78997925048708      -1.58968780073474
H         2.62438633830020      -0.73754346599263      -0.90927066015518
H         1.33173957010875       2.48740512393590       0.81936834474447
H         2.50219103445480       1.20218951141471       0.45388262349612
H        -3.10335726756080      -0.15752745481115       3.44971445177958
H        -1.71766559582330       0.94541518133815       3.60564563663244
H        -3.04586696202416       1.33547876076133       2.48566978728433
H        -3.77811015558160       0.25014044256660      -3.04247373832320
H        -2.27776614645194      -0.51771477690609      -3.60196073092681
H        -3.29886462151194      -1.33200491568428      -2.37861872500126
H         3.35738073095563      -3.11144575198284      -0.78490388703039
H         3.17004893958608      -2.46695776250124       0.86249374989789
H         1.92745226459555      -3.54474434210814       0.17717750915649
H         3.32112807484845       3.44258945870093      -0.32543613593612
H         3.09201089776776       2.33207652747832      -1.70528354016871
H         1.89626795660910       3.60174224984491      -1.38626455069514
C         0.40302783493003       0.47451033577943      -4.20789657913992
O        -0.17492292666284       1.51642774052827      -3.82976565994314
O         1.03767746245987      -0.40027041884118      -3.55059874241583
C         0.26145105858070       0.14614168617006      -5.73457638441888
F         1.35218983543133      -0.48658495445153      -6.26050187424825
F         0.03132253775734       1.24619900303373      -6.50592171758283
F        -0.81606599359096      -0.70127352910914      -5.92145940809560
