50
C14H28F3NO3S optimized with DFTB in AMS.
N         0.02575334438601       0.69219747610993      -0.64643870175207
C        -0.69774859742932       0.51149484735224      -1.95284241209583
C        -0.45110347555216       1.96557333003116       0.00175241554379
C         1.48729445429702       0.83051659935587      -0.99437563010517
C        -0.19948600074333      -0.45035438582295       0.29861761886533
C        -2.21242802582192       0.51963038548241      -1.80501519200893
C        -1.96547733427779       2.03422194809504       0.16019051405260
C        -2.67324447752084       1.83235809940646      -1.17725318185141
C         2.43254550130305       1.01116914260594       0.18967573478622
C         0.26524656934207      -1.81547237858269      -0.20429908067692
C         3.77333182591924       1.54059618754226      -0.33758463585203
C        -0.02126758339440      -2.87366635036544       0.86886071876108
C         4.77791335270127       1.72705324454841       0.79636202226876
C         0.42808343545096      -4.25839018147338       0.40800107735135
H        -0.35249976119155      -0.42349663878237      -2.39695943908048
H        -0.38799067434528       1.33711101436667      -2.59785429580145
H        -0.10694216632028       2.78969905609098      -0.62415116177562
H         0.02604740171731       2.03846250974158       0.98035393794363
H         1.56329491001781       1.69701369160341      -1.65028955851113
H         1.76718465125890      -0.05352288199113      -1.57120236525410
H        -1.26835522820767      -0.49186294038302       0.51569293841806
H         0.32424140465608      -0.20059718556154       1.22480860977831
H        -2.55572627831430      -0.33429836234352      -1.21222611361654
H        -2.63456177017526       0.41945494082935      -2.80831043354456
H        -2.19657257827138       3.02814492146207       0.55205416024415
H        -2.31636751417263       1.29927988093665       0.89196649937985
H        -2.42669574163830       2.66133971708612      -1.84623334747057
H        -3.75503743412155       1.81580270307318      -1.02560759472183
H         2.58555962259261       0.06305648649090       0.71525663079339
H         2.03092136991800       1.73379317054283       0.90373335295722
H         1.33676696836205      -1.80515855541423      -0.41736469147123
H        -0.26179050177491      -2.08644771338636      -1.12256486226963
H         3.60093386330731       2.49886119501981      -0.83691255336846
H         4.17698629856929       0.83986476532664      -1.07547153929532
H        -1.09438082816453      -2.89008878084073       1.08624062599385
H         0.50417045988802      -2.60652989868983       1.79166610030843
H         4.97662171873190       0.77770773868105       1.29659025928209
H         4.39570910326780       2.43510478574750       1.53273999329269
H         5.71576009884225       2.11326739101943       0.39787878560405
H         1.50015080516211      -4.26546550461192       0.20835903363208
H        -0.09754945746242      -4.54754009035453      -0.50270559560229
H         0.21327386991972      -4.99421060399155       1.18250811406055
S         0.74163269555691       3.77894074941827      -2.80789987442821
O         1.61310789637549       3.91149732441762      -1.64695877497398
O        -0.67232318452139       3.94122107417377      -2.50162200530667
O         1.03337068818586       2.60839625764596      -3.62516899963028
C         1.16514427282503       5.22096410004801      -3.88093878436703
F         2.44573974240387       5.17889102137268      -4.22705908806483
F         0.94105007781519       6.36042539231249      -3.23894835532355
F         0.43079957754807       5.21027033505855      -4.98616187199738
