37
C11H23NO2 optimized with DFTB in AMS.
C         2.71182218901862       0.32512618284712       2.47545262998925
C         2.11225274780598       1.16370747767602       1.35503394866468
H         1.83248108691823      -1.24208466190009       0.06014605073845
H         0.42098856767212      -1.64540939748330       1.09626196245168
H         3.10799744602918      -1.72907145780793       1.90564707487880
H         1.76278767502710      -1.55232838270254       3.05549446649428
H         2.37155658418155       0.66271149797962       3.45767012912144
H         3.79911287045539       0.39898059643250       2.43117700402627
H         1.83756912688513       2.17817757760775       1.64679450163870
H         2.80368249869961       1.17847167788494       0.50885851974322
H        -1.07846932493087       0.06231797039207       1.59077061153868
C        -0.23128215763444       0.69719912286158       1.84057239651189
H         0.09242113498023       0.48201756994737       2.85666598613859
H        -0.51531632185193       1.74522119868781       1.75694058376987
C         0.55608273642049       0.86048818016793      -0.48995989459153
H         0.43187152066533       1.94617890802956      -0.43909733620599
H         1.43710976835239       0.62141266559309      -1.09806042967369
H        -1.54321919148198       0.26481508443796      -0.45642176252749
H        -1.41028104203584      -2.57404701797564      -3.02508993333828
C        -0.47164869556009      -1.18574882450505      -1.66890953214530
H         0.50792823409130      -1.24930480938474      -2.15163829682392
H        -0.48919515397784      -1.90556864300744      -0.84565082115853
C        -1.56459609730140      -1.55520999842913      -2.66996137201568
H        -1.54208413347705      -0.88205433906803      -3.52802063004605
N         0.88826496629611       0.42089818332355       0.90727984940681
C         1.30484943042883      -1.01601464122281       0.99282489016049
C         2.25384644328640      -1.11046090768068       2.18497592347474
H        -2.55071068794107      -1.49415358000073      -2.20575385764243
C        -0.68251529430256       0.23643381693810      -1.13197531109530
H        -0.92217613674874       0.88911648305276      -1.97897262957474
C         5.07264370016549      -0.92905894302472      -2.13114066609057
C         3.85837845043044      -0.71597429920349      -1.19834407475395
O         2.72053549080700      -0.81483197946682      -1.71621399172779
O         4.10758913266922      -0.44947191364551      -0.00440358683460
H         5.63729458551564       0.00082632604958      -2.18446462480687
H         5.71542384284502      -1.70199240914220      -1.71246851843935
H         4.74311265689695      -1.21922008125846      -3.12658738125578
