61
C19H39NO2 optimized with DFTB in AMS.
N        -0.47479624428204       1.64152139546547      -0.08582748021934
C        -1.34243368937195       2.28089235059741      -1.12604466096147
C        -0.12312830401578       2.67017163520953       0.95811247400596
C        -1.14399039269753       0.47328402668825       0.58057712371418
C         0.79249030123228       1.21280626772942      -0.78176053652163
C        -2.60584211228613       2.89903910253535      -0.53914092308115
C        -1.33834166130207       3.35964812950047       1.56178290177281
C        -2.24330959945126       3.96542561281906       0.49308572926748
C        -1.59646003296347      -0.63782872589998      -0.35856738534479
C         1.74711260204779       0.37497432532030       0.06726364552630
C        -2.10516140679758      -1.80927563527091       0.49178699573755
C         3.09981294043730       0.26232802385266      -0.64307341977167
C        -2.60031824241133      -2.95907483055241      -0.38903202329541
C         4.06694390614230      -0.59708076109866       0.17708912431900
C        -3.10326181007337      -4.12915504630931       0.46241858216310
C         5.43141964669029      -0.70850700327311      -0.50949775899494
C        -3.59878418693010      -5.28145685972536      -0.40969489335850
C         6.39544713762362      -1.56774773984934       0.30698869807378
H        -0.74022876521418       3.05754897414628      -1.60758303115206
H        -1.59051401309688       1.52300713696204      -1.87173893877765
H         0.42264203690953       2.14148039829396       1.74785416547371
H         0.53039543373677       3.40171854431475       0.47345501756486
H        -0.42608387892676       0.09449079690938       1.31098279874434
H        -1.99428456251570       0.85467429605507       1.14429920483598
H         0.49836450973354       0.65407723147643      -1.67475254993862
H         1.29039861578490       2.13059021358005      -1.10827277131478
H        -3.16827247254683       3.34623171145574      -1.36354697328203
H        -3.23381306915582       2.12895684161650      -0.08477748898845
H        -1.89324689345120       2.65189009153468       2.18306388165820
H        -0.96275227799691       4.14735162112220       2.21995010367182
H        -3.15393694517867       4.35383213304654       0.95527439703544
H        -1.73331866631431       4.79655755969764      -0.00691003504938
H        -2.40247489961773      -0.29304838362969      -1.01437201927133
H        -0.77244500994475      -0.98427374146800      -0.98900922799362
H         1.33736851402995      -0.62620059612049       0.21785649921734
H         1.88819380612702       0.82323081746555       1.05179640973703
H        -2.91842496743067      -1.46180665569021       1.13646589106868
H        -1.29560429982571      -2.16314000790124       1.13755865749930
H         3.52568922102636       1.26243521750977      -0.78164777427903
H         2.96169359137277      -0.18267163182899      -1.63530850016152
H        -3.41010315565872      -2.60226978833592      -1.03552781910980
H        -1.78438695833260      -3.30143417586072      -1.03555214979567
H         4.19102375365370      -0.15381949626134       1.17024320206455
H         3.64051956352820      -1.59706604358181       0.30908393162238
H        -2.29251481587241      -4.48349116550928       1.10759611139772
H        -3.91794905394135      -3.78474967184779       1.10806511667364
H         5.30460998384377      -1.14882927761685      -1.50477588495835
H         5.85700293652290       0.29260071670768      -0.63925304864070
H        -3.95071871648026      -6.10068570010905       0.21769208976323
H        -2.79453642332880      -5.65264302000759      -1.04676474817772
H        -4.42182047793708      -4.95327355165851      -1.04640588621451
H         6.54958868873392      -1.13374167245894       1.29575396659004
H         5.99823188799233      -2.57635550071559       0.42933499317899
H         7.35942424619621      -1.63274456662340      -0.19833710195476
C         0.00988258629442       0.19981150890176       5.19365682911689
C        -0.21753724828774       0.60814677228372       3.71930730830180
O        -1.38237128123721       0.91311633616834       3.39702651395397
O         0.78960874980656       0.60041320115635       2.97012666167489
H        -0.18456237292844       1.06368145461437       5.82848911102551
H        -0.69165767416357      -0.58966795562389       5.45876966351627
H         1.03208344470052      -0.14241093790830       5.34212623354219
