62
C16H36F2N2O4S2 optimized with ForceField in AMS.
N        -0.00111817683462       0.00119261531054       0.00151926009785
C         0.84234802171493      -1.03037715427175       0.70486120727601
C        -0.87380816109231       0.68365054628746       1.02302231205733
C        -0.82611389926370      -0.69291060798496      -1.05087865330857
C         0.85296485466805       1.04430791144019      -0.67127070746359
C         1.89277993369438      -0.48450878583362       1.70680849946687
C        -1.93917932403760       1.66259560551395       0.46359255150635
C        -1.89675276742807      -1.68728396564984      -0.53110630753496
C         1.94031240710065       0.51327557578799      -1.64135898810942
C         2.66444545248598      -1.63913054598565       2.36165448039355
C        -2.74545009910284       2.29681656632899       1.60582760701952
C        -2.65088207054684      -2.32959638664083      -1.70397561854801
C         2.72678023596691       1.67791949477514      -2.25970608792617
C         3.69904763596823      -1.12250004774036       3.35763798278304
C        -3.77152001447043       3.29423866004925       1.07384678758426
C        -3.70122908075809      -3.32187887165225      -1.21271921579154
C         3.79103899412837       1.17618049697700      -3.23178670015442
H         1.36737137229701      -1.67523737226971      -0.03459720710313
H         0.19362933482810      -1.71841598084984       1.28783246480381
H        -0.24740423394119       1.28033103638834       1.71986870830781
H        -1.38997150966234      -0.06820479926211       1.66058465018940
H        -0.16651499035124      -1.28052301218311      -1.72450536482927
H        -1.32919531396607       0.05212562478455      -1.70660539367278
H         1.34611203407314       1.69285330651039       0.08662350496016
H         0.21599327144771       1.72645484417945      -1.27358571712267
H         1.39849607441445       0.09193740918479       2.51409606089244
H         2.62410462751150       0.17425164756050       1.19714508558445
H        -2.64807716227196       1.13809708595366      -0.20795644875415
H        -1.45468364037562       2.48277971475166      -0.10266423600374
H        -2.63644511252726      -1.17425960748186       0.11558258977854
H        -1.42124567458191      -2.50201880631295       0.05079775315586
H         1.47649078286644      -0.05798363313188      -2.47023439624743
H         2.65777110836128      -0.14645691489682      -1.11371453826981
H         3.18451824956528      -2.23505068446076       1.58046717819951
H         1.95600825481682      -2.30705753714651       2.89885359978727
H        -2.05956268108539       2.83011008122748       2.29989881313031
H        -3.27482529284831       1.50363049224889       2.17711346521849
H        -1.93367675799241      -2.86734545238712      -2.36207990320736
H        -3.15458064675435      -1.54109419386081      -2.30425676575392
H         3.22221202596185       2.26558161787270      -1.45657919717898
H         2.03213369829296       2.35045867127620      -2.80904618662352
H         3.20305142160775      -0.54063692279594       4.16345819822355
H         4.44207533085384      -0.47729191923110       2.84273204072340
H         4.23279408874605      -1.98043763563490       3.81834642023809
H        -4.46774757290515       2.79613973439446       0.36718162977139
H        -3.26116506585082       4.13019059164520       0.55030898846779
H        -4.35962153074172       3.71033483246349       1.91899175307346
H        -4.45206718323259      -2.80626116213071      -0.57715257107187
H        -3.22098435784432      -4.13503434954126      -0.62779602106234
H        -4.22254414542676      -3.77315718901732      -2.08318968944181
H         3.31995644029053       0.60335854173973      -4.05878781385032
H         4.52055957416978       0.52617239775123      -2.70379758972593
H         4.33549403332134       2.04101162425800      -3.66630295810899
N        -8.60070416468428       0.37657597076842       1.53417658388564
S        -8.78261663735528      -0.19447312784597       3.05716770011487
S        -7.48560181434232       1.52223157583159       1.18619517227961
F        -9.65070092258871       0.91665591737500       3.95968862322317
F        -5.95865533243445       0.84309961006286       1.27952900229360
O        -9.52954547102011      -1.49713485523275       3.02013221533626
O        -7.43771175750591      -0.39796668688622       3.69666904342904
O        -7.58136923209915       2.64744411461772       2.17786943504242
O        -7.71813465892917       2.04828470280214      -0.20145473253035
