28
C6H11F2N3O4S2 optimized with DFTB in AMS.
N        -0.75421393175331       0.05542071525024      -0.12160033316814
N         1.19772734321487      -0.39969234409042       0.66043409718512
C        -2.09470329845455      -0.11518831619704      -0.67801346278199
C         0.14420292893488      -0.91377418507540       0.03063148515565
C        -0.28113747712956       1.20174793413370       0.45917747613642
C         0.95021073196569       0.91387264132481       0.95410597815708
C        -3.11643581270304      -0.22301213929801       0.44706978385765
C         2.35251669160665      -1.15441809764936       1.11733906336238
H        -2.30149102421377       0.74468330515318      -1.32232097202217
H        -2.08650028088394      -1.02283544657109      -1.28718648813369
H         0.04120177434160      -1.93104127224573      -0.30383869745006
H        -0.85401121703461       2.11188768211978       0.47713327413692
H         1.65743034313592       1.52144694730828       1.49063493810918
H        -2.87090491464451      -1.05493098843353       1.10401441193358
H        -4.10341904524229      -0.38424410696435       0.01697219082450
H        -3.12751434393900       0.69030232581711       1.03973986991670
H         2.34993554069441      -2.13039931876813       0.63666289452561
H         3.26166029485939      -0.61028945514222       0.86367327277659
H         2.27923341871589      -1.27475558860451       2.19963913033943
N        -1.43024880013051      -1.99403069916259       4.48550420419417
S        -2.86501576796862      -2.61125684434604       4.09381615935732
S        -0.56791212425164      -1.48748544261954       3.28453762845842
F        -2.46810840807811      -4.03064853777391       3.43323567031391
F        -1.24350046527022      -0.04151604408311       2.84473473753926
O        -3.53771672445348      -2.94171063489929       5.30049926572498
O        -3.57559003638910      -1.92749284114109       3.05797738172370
O        -0.61500036957631      -2.22930867652703       2.04629203176683
O         0.72645213474727      -1.09183697641470       3.75807044326066
