56
C14H28F6N2O4S2 optimized with DFTB in AMS.
N         0.49090335821125      -1.41346172759016       0.26841692144962
C        -0.35086118301515      -0.17488843193809       0.40539436958408
C        -0.32920326119660      -2.57801732828709      -0.22277337765450
C         1.06345225013623      -1.76735738047815       1.61750530963806
C         1.58837533995435      -1.13110746355994      -0.73141433278549
C        -1.59819757035128      -0.31226167151669       1.27794070172547
C        -1.09632034173583      -2.34088282631824      -1.52181776482450
C         2.01593888633560      -2.96168857596012       1.63298067329314
C         2.64604898300656      -0.12596739449201      -0.27700033276088
C        -2.33610009774394       1.02661454239435       1.30941214704457
C        -1.71024141030625      -3.66532856295454      -1.97636528210936
C         2.56343522822664      -3.14670164693807       3.04688023211355
C         3.49293847926067       0.28610360097834      -1.48174788653194
H        -0.63984931140019       0.12831922862062      -0.60372167259562
H         0.29198562957395       0.60275930355982       0.82339931153514
H        -1.01949874420043      -2.85085253752167       0.57898274225179
H         0.36475611248450      -3.40464596173837      -0.37376853703819
H         0.21602024859334      -1.97367861613567       2.27580176305096
H         1.57485706044755      -0.87563161501839       1.98850340494496
H         1.09919632633923      -0.76218631870377      -1.63524425370234
H         2.06568151528785      -2.08365621232643      -0.96298960422624
H        -2.26813730621901      -1.07784628761952       0.88064797393349
H        -1.32639706122495      -0.59320845737931       2.29827037801120
H        -1.88857914759575      -1.60026748193860      -1.38067933383786
H        -0.42516869634278      -1.98087865041892      -2.30402075279532
H         1.49830757634176      -3.87220693602078       1.32611332165450
H         2.84760188337367      -2.80227534483086       0.94752590712006
H         2.18622519925555       0.76501294077287       0.16052490322495
H         3.29777205455885      -0.58087019193259       0.47205906542853
H        -3.22661332169889       0.93858122366347       1.93044618575335
H        -1.69766231663570       1.80723876559453       1.72396034507014
H        -2.63973086674592       1.32041359926592       0.30429217002900
H        -2.27182728106862      -3.51061151968013      -2.89673165596867
H        -0.92617215988136      -4.39824147586837      -2.16507465468801
H        -2.38497890559938      -4.05906670416293      -1.21550737477178
H         3.23460520612903      -4.00413954019802       3.05970052224331
H         3.12135794078332      -2.26436668555587       3.36268104621925
H         1.75481754133490      -3.32414115626909       3.75750549038423
H         4.26013047474150       0.99053088493887      -1.16237630257392
H         3.97869572884624      -0.58650399089543      -1.91493033907595
H         2.87376337225176       0.76145359724856      -2.24355688124546
N         4.34885969735427      -4.84874117823008      -2.15093342677537
S         2.76328657061844      -4.83176155592039      -2.29068057494091
S         5.02649855139401      -3.84807274520967      -1.09555207769496
C         2.36547699163176      -3.55120273851011      -3.60344401220338
C         5.08340696939577      -4.79073182024065       0.52386169025938
O         2.34006981009978      -6.06726498104810      -2.88588142132009
O         2.01323677670405      -4.34485723904690      -1.13844966267410
O         4.26471814462821      -2.65307178068335      -0.76566748071321
O         6.40379882824834      -3.68385390909156      -1.46252810444385
F         1.03951129605925      -3.39778595017263      -3.65843831405585
F         2.79891725217299      -3.91843235970738      -4.79310355348642
F         2.89104771695786      -2.36699552926355      -3.30218733599528
F         5.37792132297405      -3.94407833760588       1.50583284893906
F         6.00290202460489      -5.73671600615017       0.48378389406292
F         3.91009137754405      -5.34476189850907       0.79745183422470
