63
C17H36F2N2O4S2 optimized with DFTB in AMS.
N         0.26901694357473       1.59785995756414       0.61190596032908
C        -0.43415506901317       2.53107195303916      -0.33031957750868
C         0.78446887465234       2.40274737982494       1.77338863471787
C        -0.62482013203073       0.50728001052237       1.12139688936348
C         1.44834255262469       1.03715237371175      -0.14910910759239
C        -1.55541204642945       3.32012910230715       0.33471158133442
C        -0.28966544568659       3.21410960864418       2.48166669113798
C        -1.00925486988971       4.13862030376435       1.50370521000812
C        -1.19063734582840      -0.42255015295053       0.05073355927601
C         2.29196239548411       0.01989028057834       0.61247726721382
C        -2.03404944950645      -1.51206311654952       0.72489591586944
C         3.52067083271654      -0.33792158277155      -0.23668228161545
C        -2.65236724458653      -2.44997612522878      -0.31609086422048
C         4.58999645555740      -1.02907216827868       0.61383856930758
C        -3.47300130576909      -3.55632711663944       0.35449144894612
C         5.86936691831346      -1.25352048517495      -0.19709897339677
C        -4.09620190806523      -4.49051911452506      -0.68092940686414
C         6.95535254601933      -1.90953458587296       0.65346842072102
H         0.32889909410717       3.22042723520781      -0.70200349097765
H        -0.81247571967659       1.94363858624727      -1.16881267740332
H         1.25454874676706       1.71612884855324       2.47737958065624
H         1.54020701769048       3.07640703133900       1.36835710193082
H        -0.03789208652189      -0.06602283650658       1.84237762941421
H        -1.44703235273083       0.98183878334707       1.65938850681514
H         1.05702107113204       0.59825891465087      -1.07017471691218
H         2.06832536067991       1.89593069413250      -0.41586151725528
H        -1.98100727361884       3.98392282550406      -0.42242913824990
H        -2.35086851155032       2.65122396763734       0.67506514211414
H        -1.00855116888240       2.56323283184849       2.98771437507259
H         0.22251552117684       3.80426434650156       3.24569762065845
H        -1.82758244087904       4.65663899204667       2.00862230550657
H        -0.30876769154829       4.88958129278568       1.12601521124884
H        -1.81820034200714       0.13595467354099      -0.64907844866815
H        -0.38582950462391      -0.89555641362570      -0.51661289447750
H         1.71996596796167      -0.88624053883812       0.82897550371094
H         2.63127173510935       0.44815289024983       1.55786563228815
H        -2.82815593874745      -1.04429571935647       1.31650835205367
H        -1.40174030166820      -2.08793595630640       1.40858579869893
H         3.94252344697269       0.57749037978795      -0.65995462369387
H         3.21918174438181      -0.98354615927668      -1.06840185742713
H        -3.29553110058715      -1.87255776185975      -0.98899583393200
H        -1.85570235612083      -2.89876955728820      -0.91902338169801
H         4.81855783918410      -0.39740897605919       1.47828704373454
H         4.20781519883808      -1.98610349506364       0.98565615026461
H        -2.82595304745016      -4.13307315086152       1.02372237870423
H        -4.26442724006806      -3.10424786642728       0.96172201978316
H         5.64954230445390      -1.88630774135288      -1.06422809627677
H         6.23123426564644      -0.28903102002960      -0.56748403153869
H        -4.67441091137890      -5.26760421808991      -0.18115932749854
H        -3.32057972782083      -4.96649318483814      -1.28225360471963
H        -4.75998284583667      -3.93628814575548      -1.34582936779514
H         7.23135775252256      -1.25969215717649       1.48462592546494
H         6.60482104872166      -2.86054666641373       1.05795788696644
H         7.84286503880089      -2.09547906145617       0.04813605072886
N         4.33436931692359       2.12284647919655       1.93810930888666
S         4.50677529541229       3.13382550756681       0.73452479875902
S         3.85658125723157       2.64161190756444       3.36026049605618
F         5.39016608532700       4.36264385210851       1.27020834313494
F         2.73883815361903       3.81173237173570       3.08603505314117
O         5.29493983148044       2.49358712449566      -0.26800072711268
O         3.27153228082540       3.74404450884829       0.30753316176594
O         4.85233613387002       3.29975430731488       4.13358411795518
O         3.09570571214414       1.58442647300583       3.95785362359487
