42
C10H22F2N2O4S2 optimized with ADF in AMS.
N        -0.94933133682736      -0.05654134295472       0.47357098793274
C        -2.02570756317360       1.00301231499714       0.25502217154517
C        -1.11152927224004      -1.15052588476099      -0.56746024812945
C         0.39520421076199       0.61999081447286       0.30569779573189
C        -3.43189776754917       0.43112026120229       0.23123941217747
C        -2.50114062059774      -1.76036921889982      -0.56165434133322
C        -3.57029683980340      -0.69427842013956      -0.79130937896915
C        -1.07893813654926      -0.62109745833758       1.85722541991265
C         1.61085845889168      -0.25126292800959       0.57250911719800
C         2.89409748139338       0.55497216689249       0.35238609657933
C         4.14626045120520      -0.27610250440066       0.61635222199124
H        -1.77186491828148       1.48334691902110      -0.70457565684592
H        -1.90438865565502       1.73383579451985       1.06914414403395
H        -0.34052149496559      -1.90349257670501      -0.35848832058317
H        -0.89262917915822      -0.67165767697618      -1.53711830507298
H         0.38205111690723       1.48004792217529       0.99451127166272
H         0.41663490041015       1.00963761468659      -0.72487911989605
H        -4.10873390237220       1.26881701837968      -0.00798291633907
H        -3.72303988265738       0.09093112399583       1.23638347463233
H        -2.67996757033632      -2.30208052787953       0.38088844474589
H        -2.52180405150206      -2.51782788367206      -1.36404205813199
H        -4.57191752121470      -1.14533359720208      -0.71427421988644
H        -3.47011473146440      -0.28701614925425      -1.81579014292718
H        -2.11892478040148      -0.87993864668811       2.03905456561431
H        -0.46574064237569      -1.52305031367604       1.95213184487158
H        -0.77564753721479       0.14608217191518       2.58033060927031
H         1.62206049585889      -1.12597133000292      -0.09828932901682
H         1.59612800553313      -0.62807212658556       1.60817497402911
H         2.88660902885039       1.43882737645600       1.01522073210279
H         2.91197783393341       0.93820609543311      -0.68415726079592
H         4.18914775474969      -1.15079994690908      -0.05215977416078
H         4.16340895912225      -0.64378837797330       1.65447731930467
H         5.05767257218881       0.31761290951737       0.45360772304999
N        -2.75067294705922      -1.65639856861980       4.19603712371322
S        -3.41315838505563      -0.26827264568182       4.64637235584588
S        -3.49881839221307      -2.82649621533992       3.41472702103562
F        -4.86697859471675      -0.67314262820255       5.29173053107750
F        -4.33868093831002      -2.02490332335679       2.18362499503919
O        -2.62876665253154       0.28084730266047       5.73230367960766
O        -3.75361435356155       0.59325953393842       3.51702697587866
O        -4.54575946186572      -3.51285188854231       4.13834608551241
O        -2.48814784835280      -3.57544160079346       2.68086189499187
