48
C12H22F6N2O4S2 optimized with DFTB in AMS.
N         1.15021414091037      -0.05656670621649      -0.38738640729384
C        -0.32443424855583       0.17822640665487      -0.53152665532242
C         1.38155202576663      -1.48646444500293       0.02784220081749
C         1.74832987444425       0.15476457956477      -1.75745197185763
C        -1.10659052386083      -0.15315775587626       0.73283431068782
C         0.58774682111868      -1.90066460253988       1.26093231948707
C         1.77306492206901       0.86540528701219       0.62790456428173
C        -0.90330256028150      -1.62093137192927       1.10227608008886
C         3.25140173738775      -0.09067651753871      -1.87268462221275
C         1.54465767815392       2.34825984701362       0.38998903894332
C         3.69144376229878       0.16037051930692      -3.31376623213637
H        -0.66780233191685      -0.46123482546837      -1.35006146454789
H        -0.47028572457966       1.21981936696911      -0.82270310531590
H         2.44829344176079      -1.59944476947909       0.22540553498608
H         1.10290340851492      -2.10929508363765      -0.82694621814946
H         1.51260663085158       1.18077923964703      -2.05089661722474
H         1.21541459065225      -0.52132374330313      -2.43267386631083
H        -2.16238339383167       0.04229685139491       0.52741652471779
H        -0.80073426346587       0.49364782544343       1.55864213485803
H         0.97129932542743      -1.39219247391026       2.14719703647591
H         0.75525251531360      -2.97149574966286       1.40130618826042
H         1.38470496902216       0.58280330418379       1.60637591672140
H         2.84124256064198       0.65804673921192       0.62109051129077
H        -1.42184529314799      -1.84294409935025       2.03753773544608
H        -1.32551962806713      -2.25754919595223       0.31744649814428
H         3.80258832580717       0.57617366512545      -1.21147000375850
H         3.49671573194533      -1.11700990512805      -1.59460040411463
H         2.10970924706732       2.87893323097444       1.15611198715539
H         1.91675664287737       2.66840275407408      -0.58151002691948
H         0.49623226916186       2.62772890942754       0.48400274353238
H         4.76780783276057       0.01331979005678      -3.38977156312663
H         3.19526139563884      -0.53026538734115      -3.99704890737890
H         3.45692870357561       1.18171020588413      -3.61609566623165
N         4.72111389242936       0.83785140821020       2.53912106090163
S         6.12190981182282       1.44379729691004       2.01704068872263
S         4.39404896075920      -0.66624678419569       2.13021155143205
C         5.80715672936381       1.99806920231115       0.24792261415243
C         5.56823618076325      -1.87574287776836       2.97110632111441
O         6.32892508361924       2.67905096815814       2.71669979272322
O         7.19807278043905       0.49368955782690       1.92378540047996
O         4.51724863796462      -0.96738387623036       0.70596356775059
O         3.09858545015105      -0.96633528093143       2.71466285935272
F         6.49387871275160       3.09309753478315      -0.02120041953877
F         4.50209649922643       2.28119591923565       0.09042562111015
F         6.12395975201466       1.06722678717870      -0.63641441569940
F         4.86402916894347      -2.94288852734258       3.32374290956098
F         6.09234977445335      -1.33339687076197       4.05222802666056
F         6.52321354333730      -2.25197783129188       2.14823976378364
