36
C10H19BF4N2 optimized with ADF in AMS.
N         1.24921038723600      -1.08966539260498       0.22157864443418
N        -0.77184375413671      -0.34794726044622      -0.01334386871502
C         2.71983429286838      -1.16384799272383       0.12378714910239
C         3.38070083335540       0.02030908155979       0.81836174001078
C        -1.90271804849069       0.48710884898371      -0.43823552060409
C         0.51612773481563      -0.08689218276224      -0.27782008894079
C         3.04111919413580       0.12944235153826       2.30258447155114
C         0.41253862187010      -2.01462914984191       0.80603681522652
C        -0.86409946219428      -1.55354075466073       0.65489582984281
C        -2.69543143087684      -0.15567990518038      -1.57196437341716
C         3.71805685274326       1.32168678157007       2.97529510646064
C        -1.88882266217639      -0.30573822518747      -2.85606580843262
H         3.00885096669657      -2.11737480783207       0.59039252749242
H         2.97549758675446      -1.17926030488307      -0.94714236667408
H         3.11009991603143       0.94474169491806       0.27907091376657
H         4.46907079722229      -0.09427459295577       0.67689072084413
H        -1.47520342760222       1.44883204645624      -0.75788654000570
H        -2.52870241334832       0.66598452331694       0.45051953876817
H         0.91593484102763       0.74741674338774      -0.86996434214727
H         1.94600642568228       0.21468402089195       2.42520106864302
H         3.33924170676547      -0.80436913370973       2.81474456382915
H         0.79246213682433      -2.91417849541043       1.27370751861582
H        -1.81383775185930      -1.97067071894479       0.96392681809153
H        -3.07794246537124      -1.13574850650318      -1.23439231686496
H        -3.58240350300363       0.48062737429118      -1.73958019966133
H         3.40887607446747       2.26703766265801       2.50192111138905
H         4.81409200791324       1.25121014004521       2.89346379256201
H         3.46249914914442       1.37747982871800       4.04413210141453
H        -0.98496387005227      -0.91525150487045      -2.71266209603250
H        -1.55369181735269       0.67395371409266      -3.23111582325424
H        -2.49737760868940      -0.77782805681710      -3.64101692670176
B         2.33164315463291       0.48731647157263      -3.00690156442284
F         2.30283157165427       0.93553079348446      -4.32310510297266
F         1.88858144570366       1.55792045433628      -2.11116531054724
F         3.62714495283103       0.08469585732607      -2.59425502713572
F         1.42925026527794      -0.61652419841291      -2.81487932631487
