47
C15H28N2O2 optimized with DFTB in AMS.
N         1.68867644776675       2.14789255388696       0.25462771768650
N        -0.39498154030872       2.31995848215715      -0.19624831166734
C         3.08356828466646       1.72664608602181       0.21510875513170
C        -1.70287364327052       2.23934446652488      -0.84893872171673
C         3.33099421549864       0.61009467366222       1.23225288372622
C        -1.88920011373285       0.95733827552767      -1.65667101861322
C         2.51842529896392      -0.64547629552170       0.90336576413222
C        -1.72612316089603      -0.30890620298586      -0.81020193902049
C         0.75623035349089       1.78970248171303      -0.63093777816420
C         1.13528378973506       2.90287212004933       1.25520621881103
C        -0.18527999712482       3.01590171234110       0.96759697035244
C         2.81443311223532      -1.77421926497067       1.89417149684698
C        -1.69766016101028      -1.55169905283756      -1.70483120866804
C         1.98768831241069      -3.01858719543518       1.57486526646352
C        -1.51219561303804      -2.82490834419080      -0.88288629814486
H         3.70976443843145       2.59528248905457       0.43768771913962
H         3.28628697210755       1.36778157530476      -0.79850289073404
H        -1.80369366688060       3.11058656348693      -1.50604992824058
H        -2.45966797245810       2.31208112777474      -0.06107200849249
H         3.08656828227628       0.96676915328466       2.23922055870340
H         4.39889346306509       0.37366414970726       1.20849933480757
H        -2.89706048791729       0.98821373346372      -2.08253670009470
H        -1.18015880169854       0.94069417545674      -2.48706886932140
H         2.76175137514215      -0.96992076005843      -0.11263550681719
H         1.44954034522039      -0.40674647444344       0.93196714148923
H        -2.54692235285434      -0.37926235552298      -0.08716317153735
H        -0.78928405530627      -0.25617790389003      -0.24613160850278
H         0.89217193517507       1.09871677151932      -1.58687020844530
H         1.71705336325290       3.29562181731183       2.07074277073436
H        -0.98049882116010       3.52496266724475       1.48394412374253
H         2.58961603366050      -1.43848179892726       2.91313497860751
H         3.87969236029816      -2.02531420674929       1.85276556366392
H        -2.63068428300920      -1.61513487876921      -2.27514671637051
H        -0.87122581591710      -1.45266223862144      -2.41521656353174
H         2.20205040702529      -3.36878049522435       0.56457194548888
H         0.92180041464602      -2.79623279827347       1.64598373495759
H         2.22296005804192      -3.81797156478480       2.27814326529833
H        -2.33186479589819      -2.95034964791450      -0.17318252210011
H        -0.57493374887000      -2.78392740278885      -0.32621897556120
H        -1.48575775896093      -3.69358817936365      -1.54104643785908
C         2.16993376389455      -1.21633849342231      -4.14080598574401
C         2.03881906243579      -0.28166378293180      -2.92706524449338
O         3.03018136971813      -0.08299673506212      -2.22021361810985
O         0.88415018732825       0.21177057340882      -2.74651069634117
H         3.20518582694291      -1.52450501404499      -4.26900236370474
H         1.54272001402157      -2.09235373535850      -3.97975769562866
H         1.82042594256022      -0.69974559660910      -5.03334128355840
