44
C12H24F3NO3S optimized with ForceField in AMS.
N         2.00133125743401       0.44026920571923       0.10973335551420
C         2.24485131127993      -0.86336539417870       0.78746432107091
C         3.11925985473250       0.60037704204776      -0.86859926728129
C         0.69896777551988       0.44200004211710      -0.62531594548650
C         3.67052902416398      -1.28258666557261       0.48949251207727
C         3.94484208363134      -0.67512604383642      -0.86033809268073
C         2.04868700165779       1.55210748630983       1.09477428687429
C        -0.54974866693322       0.24404311794539       0.26646862586432
C        -1.80819327001095       0.09745545322096      -0.59803402805067
C        -3.05897879833001      -0.09554735599208       0.26705362554111
C        -4.31429222348219      -0.20756362099970      -0.60573735150086
C        -5.56549255489498      -0.39084621146951       0.24806849793609
H         1.58135482272057      -1.66530548834428       0.38937451382083
H         2.07777384724173      -0.82113899914300       1.88832016673351
H         3.79600516213143       1.44446575179370      -0.60303564169005
H         2.77229267760863       0.80930840327798      -1.90712056877634
H         0.70912281899759      -0.36251909451205      -1.39748001588696
H         0.57769769010654       1.40455429441001      -1.17406460838011
H         3.78101304101374      -2.38883816577414       0.47099072424922
H         4.35991926558697      -0.84874702643118       1.24711355026686
H         5.02790481234327      -0.47073665283135      -1.00486756288831
H         3.58507295026753      -1.36055929576383      -1.65993587969121
H         1.31405468116348       1.40688750952366       1.91471580252431
H         3.05036961102277       1.61540704639781       1.57694211669744
H         1.83962479958368       2.52772239130299       0.60120395783825
H        -0.44184806070797      -0.66188298642726       0.89902966168375
H        -0.68485105177171       1.12404665538405       0.92966705995996
H        -1.69272878737392      -0.77929241174230      -1.27299785613620
H        -1.93010518114995       1.01000886557174      -1.22258268314803
H        -3.16706275833436       0.76965315794095       0.95771072856692
H        -2.94751325331708      -1.02148121066234       0.87349758722431
H        -4.42897244868735       0.71399826809856      -1.21722628269768
H        -4.21692809445235      -1.07600203645852      -1.29322425240491
H        -5.69844921922105       0.47708208071353       0.92848859465515
H        -6.45684020069258      -0.46560602826395      -0.40998213712750
H        -5.48881816889615      -1.32135209822110       0.84980965188315
S         5.45410242054399       4.59488858859620      -1.64711322191278
O         6.92961229681337       4.89965405990659      -1.35066821440491
O         4.77695729711530       4.77737758735235      -0.28080439154256
O         5.44723969116045       3.07228836935858      -1.84152271305202
C         4.72712592403691       5.54650291408379      -3.00809973307870
F         5.37173427267303       5.22858446326177      -4.18737143608981
F         4.87052681389791       6.89653772568244      -2.75504982272574
F         3.38536252020754       5.23919753940732      -3.12018906224800
