52
C16H30F3NO2 optimized with DFTB in AMS.
N        -0.23763783157247       1.46333313131060       0.04466852209281
C         0.34115958481882       2.48459504341508       0.97143679194876
C        -0.98413564564197       2.28869990136816      -0.96149333987131
C         0.84925087433174       0.70641981866569      -0.67016044268348
C        -1.16913949533628       0.55795612422977       0.79617048088515
C         0.74656826844387       3.65644911252166       0.07958206665652
C        -0.11980254291530       3.52477120243685      -1.18419566153654
C         1.67742712811627      -0.22918543570991       0.20361794487939
C        -1.80540661645156      -0.52252693198373      -0.07317057078704
C         2.64081967203652      -1.00507671562613      -0.70509625998406
C        -2.83594898298271      -1.31143630454497       0.73914927346692
C         3.47218824722322      -2.00722543450742       0.09946135846549
C        -3.45750413523735      -2.41467004396869      -0.12413453675219
C         4.41189374266021      -2.79638705488205      -0.81038790169823
C        -4.48141051898825      -3.22825528333654       0.66395985811785
H         1.17163541101875       2.05098559925165       1.52755562690265
H        -0.44343461330658       2.78096045845658       1.67169124565288
H        -1.94782534528689       2.55674490437550      -0.52268714651202
H        -1.13988919598369       1.69485496346001      -1.86618847954792
H         1.49679552097299       1.44972747832249      -1.13876117903545
H         0.36167204251004       0.12522026233918      -1.45570283923804
H        -1.94329663776637       1.19921775239576       1.22892309942285
H        -0.59901372142888       0.11354957139007       1.61592923680673
H         1.80825849949433       3.60513172658536      -0.16950046807256
H         0.56530226351806       4.60032774895091       0.59654549162423
H        -0.75037332829753       4.40314403420749      -1.33070564945694
H         0.50618850716229       3.40604850617272      -2.07049892884786
H         1.03303906105260      -0.94446459561776       0.72032701312506
H         2.24240912712021       0.32773426726575       0.95869177296136
H        -1.04202083108724      -1.20914627833051      -0.44476052898291
H        -2.29150929477016      -0.06708927472481      -0.93858526166566
H         3.30448312290283      -0.30118992796564      -1.21858223853038
H         2.05652203394298      -1.53487885628767      -1.46379433497767
H        -3.62080474581128      -0.63636324539057       1.09940198349696
H        -2.35036521733353      -1.75738242007429       1.61468992591013
H         2.80192111168562      -2.70055264503894       0.61869252258936
H         4.05729747807978      -1.47559101732850       0.85875140015891
H        -2.66574369645485      -3.07633368658980      -0.48862845810227
H        -3.94154661766507      -1.96200480314755      -0.99507638322244
H         4.99197718875560      -3.50779631164873      -0.22218600534051
H         3.84173752362169      -3.34633911920028      -1.55959363717788
H         5.10148781347761      -2.12432510219181      -1.32312432806617
H        -4.90460226792728      -4.00675724727371       0.02930562066625
H        -4.01266486125336      -3.70139901603458       1.52829444705524
H        -5.29201056409265      -2.58812450801982       1.01593871285599
C        -0.78463905405258      -1.01048073789407      -3.21134932364275
O        -0.05642042160979      -1.64681825939846      -2.44815384683236
O        -1.22569803563803       0.13999870107073      -3.11431228310699
C        -1.26086161702902      -1.79538959106365      -4.52155158983830
F        -2.56694032383653      -2.12022907539453      -4.43518067247012
F        -0.58773530224145      -2.93757202668568      -4.71748569741900
F        -1.11524479314733      -1.05665024763124      -5.63464138844245
