33
C9H17BF4N2 optimized with ForceField in AMS.
N        -0.01994375372538      -1.32798985867849       0.34373063536065
N        -2.04415832788907      -0.41451901886510       0.25020510118764
C         1.33651416149165      -1.63546890877898       0.79154510866801
C         2.37579835114728      -0.86241239524547      -0.03078663930363
C         2.20222567422691       0.65697347192478       0.11300709754816
C        -0.92689650263271      -0.56698994638487       0.98640713740859
C        -0.58424631536999      -1.67385100902938      -0.83124675677443
C        -1.84105732914195      -1.10699483481524      -0.88889377602878
C        -3.20300568992963       0.40917023670293       0.58061053073204
C         3.29040993802628       1.41422208543517      -0.64098316634785
C        -3.17662504207913       1.70393749769538      -0.22338996973413
H         1.45069947334491      -1.37751624094614       1.86763858630668
H         1.51743646917935      -2.72705364945451       0.68839465845228
H         2.28916458608265      -1.15109790110083      -1.10119324528920
H         3.38938366001602      -1.15408637388292       0.32213878662525
H         1.21410831166705       0.96431065376645      -0.29402876614273
H         2.24387601426881       0.94027503278304       1.18775624677424
H        -0.75893569091536      -0.09648296153180       1.94793228613727
H        -0.11018748308691      -2.27279664953778      -1.59802373572412
H        -4.13558845054856      -0.15364816643274       0.36084146551655
H        -3.19575790692890       0.65688642735354       1.66449549857450
H        -2.54406167081821      -1.17728616654077      -1.70860598846943
H         3.25983713428043       1.15921214514782      -1.72220784674066
H         4.29145231190522       1.16263750843295      -0.23001904350305
H         3.12514450235822       2.50683020565464      -0.52930090193581
H        -2.23960644812768       2.26313333419224      -0.01188815542657
H        -4.04496191937255       2.33697963119570       0.05650169990317
H        -3.23117906221260       1.48021350815420      -1.30932339867957
B        -1.15350062725509       1.46294226392000      -4.32205603448389
F        -1.06703641102676       0.17259068215482      -3.73631944394551
F        -1.94552835564977       2.30651713709780      -3.49924126095399
F        -1.75039873053022       1.35999631171289      -5.60675669550307
F         0.14957450134570       2.01341006150064      -4.44766587990861
