43
C13H24F3NO2 optimized with ADF in AMS.
N        -0.91121580069842       0.20805135245347      -0.64748307585208
C        -1.04712845013129      -0.94648292847447      -1.63014655879203
C        -2.23191906349984       0.14920352573612       0.08532471540168
C         0.21296212999882      -0.05310707136382       0.34864301681892
C        -1.70518769941939      -2.06135609687465      -0.82633131380560
C        -2.49593052316263      -1.34405734664897       0.30217157278481
C        -0.71308821316984       1.50394108916962      -1.40317750887528
C         1.61481077384157       0.12554241998372      -0.19720606787709
C        -0.59642514769937       2.71842065156573      -0.50645406611063
C         2.64559066696195      -0.42351046877759       0.78788838852369
C         4.07208968065054      -0.22209342313386       0.27783488979210
C         5.12307143942585      -0.74472077863625       1.25097121437941
H        -1.71787116567769      -0.57060149539934      -2.41839524190764
H        -0.06735405528613      -1.13707354230198      -2.10158456046841
H        -2.17777059512188       0.74243715913179       1.00638606983419
H        -2.97692081121306       0.59628845483753      -0.58976166014623
H         0.02235109592184       0.61376390192148       1.20469498965686
H         0.06742797925691      -1.08660022274300       0.69372249137371
H        -2.35807504691355      -2.65689747769593      -1.47969409344397
H        -0.95550084300578      -2.75104826862422      -0.41185434136829
H        -2.14921088656556      -1.66514711432849       1.29546003264313
H        -3.57523520726472      -1.54626233054912       0.25668832643957
H        -1.59218658065418       1.58865925503899      -2.06112748108879
H         0.16388766486537       1.34393929937949      -2.05474046759123
H         1.82352775069491       1.19352371752733      -0.37685330344903
H         1.71398238538037      -0.36446572718373      -1.18090929442795
H        -1.48792450526103       2.86759486133489       0.12139651784618
H         0.29108332107992       2.68005385297886       0.13959179496923
H        -0.49262096861724       3.60475153322331      -1.14951338592951
H         2.46636260799008      -1.50417545766204       0.94500007242895
H         2.53422411794071       0.06349401818725       1.77699132572040
H         4.17408321093154      -0.72554407364557      -0.69789964775243
H         4.23936784077499       0.85431990319649       0.09055436680960
H         6.13836218607402      -0.60026163937376       0.85290290680648
H         5.06227020907802      -0.22434154389315       2.22103296515257
H         4.98517530194105      -1.82212842933057       1.43758172301752
C         2.00170104798564      -0.62434369932138      -4.07213705592453
O         1.23688131947874      -0.12316192357919      -3.18896869316369
O         2.33853727733915      -0.22277120907790      -5.19035926406608
C         2.66829272604494      -1.97706265565902      -3.62300144481587
F         2.95580830052904      -2.81145894515029      -4.65503430979262
F         1.89551041434839      -2.71267908536993      -2.73574513825355
F         3.85535961302726      -1.73094377636788      -2.96262007049645
