31
C11H17NO2 optimized with ForceField in AMS.
N         1.11406760848937      -0.01405940464857       0.49710302831304
C        -1.25691792532047       0.03041646538028      -0.15679587862433
C        -0.26273643017070      -0.02184693104698       1.00714768014925
C        -2.70293975938610       0.01691728307745       0.34972866824091
C        -3.69300004554430       0.05025452373725      -0.81081730167324
C         1.74885365114841       1.17682165637922       0.27057095911906
C         1.74613475203077      -1.19802907866745       0.23122398198615
C         3.05348598064655       1.20153539750135      -0.22850127221370
C         3.05015620769185      -1.20895066307021      -0.26982323852375
C         3.70540352898565      -0.00030349640185      -0.49941009516129
H        -1.08769761361255      -0.84827213706713      -0.81755419189595
H        -1.07982740531968       0.95623629159750      -0.74732773243528
H        -0.44302822595199      -0.93738469629531       1.61418206835563
H        -0.42606978137877       0.84548644356883       1.68406514640202
H        -2.88248447117326      -0.90289086780040       0.94806970542572
H        -2.87996759653667       0.90049892969004       1.00046260000751
H        -4.73000660781304       0.04190020737568      -0.41411524050224
H        -3.55027027072395       0.97197965975579      -1.41436679992056
H        -3.55480389572143      -0.83983251129925      -1.46137444587360
H         1.24734193644610       2.11547207477973       0.47147373666736
H         1.24163070852434      -2.14185122947246       0.40088263818667
H         3.55351434379781       2.14535206576572      -0.40416087838913
H         3.54709442805719      -2.14751500524530      -0.47865851671860
H         4.71581131225177       0.00491482507213      -0.88705584477028
C        -2.73507388252750       4.39527565928720       0.84079396042084
C        -1.65605891929300       4.34737940777095       1.87598576250414
O        -0.75627784257906       3.52948669991667       1.78032994972278
O        -1.66921939010219       5.12555407163782       2.81616192000187
H        -2.28892825463946       4.61186612854912      -0.15252660125993
H        -3.25856478802530       3.41734431619370       0.79978122773963
H        -3.47502365155043       5.18796445087851       1.08330142351929
