45
C13H18F6N2O4S2 optimized with ADF in AMS.
N         1.85055280894841       0.94613785530645      -0.77937936402656
C        -1.88495174341591       0.10054828082820      -0.59035850423930
C        -0.46518479756230       0.34255304542337      -0.08237721737182
C        -2.88028228604682      -0.11194510869889       0.54740821740141
C         0.45302055060283       0.72418113873224      -1.23445352318178
C        -4.32213570215706      -0.19034714727819       0.05024506864067
C        -5.32597368760611      -0.36398976056127       1.18701595622158
C         2.85518732258568       0.17859441420137      -1.25537219858434
C         2.09105267891580       1.95295646149827       0.08730635280087
C         4.15743620327438       0.39477872718412      -0.85386518662844
C         3.38104170709648       2.19784829485855       0.52671235595178
C         4.42737257623887       1.41718080564802       0.05549292190573
H        -1.90109342178300      -0.76702249301778      -1.27683941437869
H        -2.20279835963198       0.97983943227656      -1.17397685020019
H        -0.49881798413109       1.17367288166794       0.64242029320380
H        -0.07148189750337      -0.55188552523682       0.43448597127911
H        -2.62428319328566      -1.03163311108093       1.10766215807948
H        -2.79217111127812       0.73521553329147       1.25054994709243
H         0.12894461889399       1.67420986272349      -1.68774929802175
H         0.49099427262348      -0.06077714378752      -2.00351417176102
H        -4.54953269349119       0.73736946724014      -0.50536916013740
H        -4.42062807777126      -1.02323295626720      -0.67048552418153
H        -5.25831034359890       0.47806700271652       1.89417333915441
H        -6.35951354023097      -0.40650848018234       0.81135258628933
H        -5.13167884038107      -1.29251459921032       1.74888594146162
H         2.57276755138644      -0.59716595731717      -1.96397999920433
H         1.22291791191772       2.55347925548137       0.36727427175684
H         4.95060136969765      -0.23380928467524      -1.25801146080618
H         3.54849423925987       3.02528905341308       1.21494376943530
H         5.45088037716183       1.60679977640879       0.38203780609941
N        -0.18416642205638       3.83556157453874      -0.65666208767937
S        -1.72122910834889       4.26078030424225      -0.32353631129111
S         0.81587662003022       4.74079036474054      -1.54240331307167
C        -2.68599299169764       3.91865265414464      -1.94183663546386
C         1.62833941933189       5.90488663165823      -0.29634242156671
O        -2.20806703341947       3.23036245794317       0.58934033070069
O        -1.94769791949866       5.67033608382686      -0.05277591968548
O         0.19855649396873       5.61106450158886      -2.52969876096399
O         1.92290201273280       3.85170781791947      -1.91497920012278
F        -3.90560514515653       3.41738579917794      -1.62523844886964
F        -2.04342187543284       2.99794697131001      -2.71425685044539
F        -2.85699625581279       5.03871130445948      -2.66273791412491
F         2.66524902884359       6.54179406682759      -0.89087674864218
F         2.12615634116407       5.19269304703487       0.76278967717752
F         0.76550293642325       6.81704691500109       0.17735482609845
