49
C15H28F3NO2 optimized with ForceField in AMS.
N        -0.69688075002523       0.53873699570296      -0.20506959470822
C        -1.67012600360754       0.28121835514097      -1.31633550063158
C        -1.25305427600163       1.61560088788674       0.67827421561841
C         0.56266177461996       1.04900331293511      -0.85096573887201
C        -0.44052394861235      -0.69717446461799       0.61445130989824
C        -3.08775934300167      -0.07768534455529      -0.84125658150558
C        -2.67608034243305       1.32783553195708       1.20229224962293
C        -3.64372530656013       1.01890979601913       0.06223025784096
C         1.76151955553622       1.29664349527902       0.09983618502230
C         0.22630423161423      -1.87496303974313      -0.13665538322025
C         2.96807763408699       1.83847649894959      -0.68044419046331
C         0.44323614493251      -3.06274623848028       0.80899434554073
C         4.17468616330995       2.04768539582812       0.23232381250354
C         1.10316982219467      -4.23213939802210       0.08417725528596
H        -1.30982268984679      -0.51578866583808      -1.99930035944065
H        -1.76600888955280       1.18927927689414      -1.95683534367260
H        -1.28924612166183       2.58712541883891       0.13352716546217
H        -0.60683041499500       1.77269199297900       1.56884534481140
H         0.35346841050682       2.00889194418153      -1.37846356811539
H         0.89501985168911       0.35254062017703      -1.65308275206843
H        -1.38150364318168      -1.08483918252585       1.05082708077876
H         0.18564460463681      -0.44620380668901       1.49855327841311
H        -3.10324570699294      -1.05794592908899      -0.32210682495247
H        -3.74820105886721      -0.17739106646830      -1.73001925631573
H        -3.04361322277906       2.22372325472323       1.74826893439686
H        -2.66931994240924       0.49297971597590       1.93362969274632
H        -3.81938768926629       1.94026451652119      -0.53587425517500
H        -4.61993887334158       0.69253814075261       0.48195834635072
H         2.07099872759798       0.35215903967520       0.59193671553735
H         1.49220948582487       2.03661052919949       0.88080172727150
H         1.21310781594635      -1.57465275703531      -0.54359198753805
H        -0.41792612945241      -2.21753418106836      -0.97118230394019
H         2.70350658721051       2.80907554347994      -1.15413643099879
H         3.24858919775260       1.12206701342291      -1.48342358139783
H        -0.53441613859435      -3.40011259471270       1.21794698806030
H         1.09112577469632      -2.75396964285335       1.65844193931958
H         4.48178972312688       1.08507085768726       0.69414708654542
H         3.93260247818142       2.77799673469615       1.03350588588268
H         5.02710645961297       2.44212975292518      -0.36060278438514
H         2.09951607681689      -3.93401664289645      -0.30594389120822
H         0.46549776489706      -4.57678121785319      -0.75758004243156
H         1.23855060667833      -5.07394084651513       0.79186311971681
C         2.10776510787901      -9.06134264830186       0.40882452703066
O         2.16480713320580      -8.21920844473933      -0.47343313185410
O         2.30241707365123     -10.23493118039717       0.13564821416751
C         1.79684947956022      -8.66516314682015       1.82226277809378
F         0.61266612170164      -9.25804278262688       2.21795365105768
F         1.66865645887032      -7.29274381076715       1.92850705685487
F         2.81632369664508      -9.08407291111232       2.65642907846456
