39
C9H16F6N2O4S2 optimized with DFTB in AMS.
N         0.68752815028445      -0.99886854653610      -0.33227894769357
C         0.41821434574176       0.23296942481596      -1.14585719942624
C        -0.45831237031526      -1.96085286785844      -0.45421716604769
C        -0.91114642529258       0.88905694976708      -0.79409087916438
C        -1.79764363506282      -1.33865784745103      -0.08843965892943
C        -2.06225940015885      -0.10380832618157      -0.94692900672981
C         0.94213711219676      -0.65640114602261       1.09007804299657
C         1.90745184173977      -1.65745868238809      -0.87992143919801
H         0.41109961772282      -0.08100652429515      -2.19207811818184
H         1.25264535622188       0.91944556180522      -0.98281340199804
H        -0.23276793337524      -2.82239406526643       0.17748914993179
H        -0.48074926283837      -2.28010348358545      -1.49586946940467
H        -1.05044348268846       1.72715441470179      -1.48161769758143
H        -0.88710869171751       1.29270110110174       0.22309532615272
H        -1.83882782023912      -1.08433012890239       0.97534624567019
H        -2.56319129333113      -2.09382026436111      -0.28270184376344
H        -2.99929548627334       0.36783569255286      -0.64268682982526
H        -2.14843071433611      -0.40278319353385      -1.99513471407232
H         0.06388108558655      -0.18392745603561       1.52182528746260
H         1.16998852550232      -1.57196862023832       1.63297398891584
H         1.78905859544677       0.02558104076150       1.14254106189916
H         1.74723974043281      -1.86945820882405      -1.93359077111823
H         2.75757110168613      -0.98919027368666      -0.75562216757286
H         2.07594559926180      -2.58998395748552      -0.34557571277054
N        -0.51760636135946      -3.70001565194083      -4.78205238583093
S        -0.37923832298475      -2.10850892479162      -4.76491996016656
S        -0.08293025419544      -4.48916609338917      -3.46029201556168
C         1.44319831013781      -1.72269860060132      -5.05682333618780
C        -1.64148275687114      -4.64328016081776      -2.42411975766324
O        -1.05186487888762      -1.59279213719101      -5.92174692879637
O        -0.64470879734867      -1.45699417438998      -3.48493613938097
O         0.82774792341644      -3.77819590886675      -2.57312860673989
O         0.23664852864932      -5.84091906976275      -3.81506400468729
F         1.58598972442379      -0.96231008382332      -6.12582879805272
F         2.15452380936795      -2.82289798825874      -5.20915070749919
F         1.92599448803415      -1.05273388525356      -4.00253000985680
F        -1.29784573396721      -4.84011338099785      -1.15044148546149
F        -2.39090365627175      -5.65052260483163      -2.82371276266917
F        -2.36230932743846      -3.52664478103748      -2.47318267349700
