27
C7H13BF4N2 optimized with ADF in AMS.
N         1.10796236636370       0.17045154658145      -0.32000655442126
N        -1.05978651971446       0.12560863547776      -0.29651044957534
C         0.03773887131886      -0.61106137423370      -0.50379840887630
C         2.49825931140010      -0.31233570130274      -0.27644069601248
C        -2.42665827939160      -0.41542329517146      -0.21743725151146
C         0.68344655279749       1.43495807962109       0.03611205007162
C        -0.68039253467839       1.40674274299293       0.05085725810710
C         2.98069974518119      -0.40557979307292       1.16182081122149
C        -2.86928676388553      -0.52137234690950       1.23287837445222
H         0.05836373245738      -1.67919208776689      -0.69947188783381
H         2.49499337847728      -1.30644106728492      -0.74306432700329
H         3.10206228535590       0.37489179296118      -0.88965507251248
H        -3.07420966617148       0.24192312722200      -0.81865195707390
H        -2.39180198905824      -1.41118271515647      -0.67917821316654
H         1.37907313043398       2.23773666402583       0.24434572849759
H        -1.40374134785719       2.18006136035096       0.27513031307963
H         3.01710615934214       0.58530049094908       1.63906458839016
H         3.99199579105479      -0.83666640026652       1.17683613278008
H         2.30373801641862      -1.06069740178032       1.72796659940255
H        -2.15007353584333      -1.14226917356313       1.78524603821938
H        -3.85943586851635      -0.99722468256338       1.27482145553827
H        -2.93843417345259       0.46976207052276       1.70597812805897
B         0.10600596278449      -3.10606274863216       1.30825905128613
F        -1.06234730650789      -3.16569411961604       0.46892975697593
F         1.25337755426767      -3.11797939065505       0.43805037410936
F         0.13991231830374      -4.15501026447158       2.21760926303626
F         0.08941170371974      -1.83552508875826       1.98515335826011
