43
C11H17F6N3O4S2 optimized with ADF in AMS.
N         1.14207058619182       1.34151597976674      -0.15420495079390
N        -0.80064097881834       1.00076308492739      -1.06358785317160
C         2.24521314526051       1.35471543711725       0.81494585501789
C        -2.22622600782135       0.68154523356144      -1.22456419409627
C        -0.05041582785972       0.76085068786396       0.02106756747362
C         3.38948539845971       0.44764906365913       0.37672441093557
C        -3.13044612481290       1.76245083095833      -0.62920805362431
C         1.15376211954212       1.98309263220196      -1.37140372899269
C        -0.06623717149195       1.77261598258911      -1.94151004623806
C         2.98477598465041      -1.01735043386108       0.25212548525752
C        -3.24569029149703       1.69203142925129       0.88861002168044
H         1.82478352808985       1.03445766646277       1.77932972549686
H         2.55361421340710       2.40570844289708       0.90888430689623
H        -2.40306067337975      -0.29774561834932      -0.75264569358024
H        -2.39064344985153       0.56518214889182      -2.30595727044389
H        -0.36440796835900       0.21681082278308       0.90182307273437
H         3.79738462557073       0.81683821196586      -0.58055566328068
H         4.19521624709874       0.56526512703888       1.12118087982984
H        -2.74300914045253       2.75085607563729      -0.92920403898399
H        -4.12482767120896       1.64398543079018      -1.09358113887540
H         1.99095382760429       2.59214333823302      -1.68565745128098
H        -0.48755319346789       2.13871311111540      -2.86910009763445
H         2.19362808093217      -1.15056378633761      -0.50264129428875
H         2.61208880692665      -1.40988388521581       1.21262322097159
H         3.83987364788989      -1.63818065703893      -0.05328778703010
H        -2.26521444416163       1.81786078059307       1.36752413245133
H        -3.69553583365109       0.73773819505159       1.20875827109545
H        -3.87340400552609       2.51394559774697       1.26315643513097
N         0.28971811862133       5.84293913431025       1.15928166670060
S         1.43491044567036       5.74808348768790       0.02701846613967
S        -0.63315965556067       4.59000449786273       1.52785207529961
C         0.45517935250549       5.92365205376813      -1.62833052252189
C         0.24653638578794       3.80122640127232       3.01862568631997
O         2.23786323071359       6.95556129498484       0.09284495434455
O         2.10705227354090       4.44917973409997      -0.10389189381992
O        -0.64737888981401       3.50305523147553       0.54302789540561
O        -1.89277557571193       5.04605235671135       2.09234541269137
F         0.91351467415193       5.01393454667097      -2.53954827141168
F         0.63261862447444       7.15496429830612      -2.14538651191294
F        -0.87220716878822       5.71303651895400      -1.47164485147899
F        -0.00036601203482       4.47717372991294       4.15585684175867
F         1.59094528880705       3.72884023065085       2.84821689432259
F        -0.21326307492759       2.51735334433126       3.17610463730641
