39
C11H18F2N2O4S2 optimized with ADF in AMS.
N         3.33952203638688      -0.27348245336739       0.31477554325826
C        -0.33628080111032      -0.36933956115750      -0.76043663806206
C         0.86141370765421      -0.19535797174773       0.17198784987532
C        -1.66621301701944      -0.13326655581753      -0.05050480796554
C         2.16394879193964      -0.44588575063518      -0.57314959771294
C        -2.87562599310067      -0.29991842997771      -0.96844606666277
C        -4.19696166129907      -0.05977571763973      -0.24264414489873
C         3.97742498750115      -1.35387475633151       0.80924671036422
C         3.76278198259434       0.97743453263320       0.59791705958876
C         5.07428380371612      -1.20138097171516       1.63575575644371
C         4.85184758456661       1.17875407993657       1.42100675363957
C         5.52349804116042       0.07781730340318       1.94291498336655
H        -0.32094659852365      -1.38718657594056      -1.19177055952861
H        -0.24013801421804       0.32783421978173      -1.61292655363950
H         0.85856991628880       0.82648843893241       0.59444404080358
H         0.78244187783822      -0.89426221717905       1.02501128942482
H        -1.75659963659644      -0.83342948316121       0.80175831196372
H        -1.67544164683744       0.88551124215241       0.38218527545517
H         2.31008395475531       0.24453874086008      -1.41652644551904
H         2.22332740459697      -1.46360352217650      -0.97876200248526
H        -2.78318620877844       0.39848415531746      -1.82030135523308
H        -2.86508881775978      -1.31727940315334      -1.40109288313108
H        -4.23773215664911       0.96035237752978       0.17264423290174
H        -5.05765836645709      -0.18380283840207      -0.91688759791003
H        -4.31951515274709      -0.76562263695330       0.59479018335648
H         3.59990190667059      -2.32090096775215       0.48859211483543
H         3.21601645417992       1.78626235618111       0.12095666870476
H         5.58732362157539      -2.09004710066230       2.00096615563577
H         5.18899909135002       2.19655412099462       1.61276700450352
H         6.40780195442360       0.21681579273485       2.56650956438375
N         5.44272438753278      -0.79334896098598      -3.41901218428333
S         4.39115620170493      -1.96519984896704      -3.21066074945112
S         5.62434669228706       0.32438805889943      -2.28344881415729
F         2.92486714075852      -1.21251398526474      -3.50718673440194
F         6.71051718115050       1.22216568143588      -3.09742324662009
O         4.51699034657561      -2.92404011285375      -4.28193966989148
O         4.21826182709520      -2.42559973891672      -1.83107939380809
O         6.31997757347015      -0.11083276231552      -1.08084728001030
O         4.47093733472362       1.20918570068097      -2.11037810463285
