44
C12H24F3NO3S optimized with DFTB in AMS.
N         1.65366284489881       0.59064395645896       0.27309768476512
C         2.09018170171278      -0.83702693058933       0.30432579774254
C         2.67605209174101       1.26064880784747      -0.59448830779932
C         0.29300440297742       0.75770089608678      -0.34352471221735
C         3.61540163059115      -0.78253415238543       0.35778270536137
C         3.99684446450192       0.56671087598617      -0.27493258926131
C         1.70755197883694       1.17892522864523       1.63952780739171
C        -0.85641802491108       0.32918958676571       0.56082814764134
C        -2.17318472462896       0.45965092917533      -0.21379831972384
C        -3.36724168110899       0.08300642675180       0.66742718297522
C        -4.68598286785802       0.23144451334525      -0.09768345643274
C        -5.88197534683377      -0.13745529396867       0.77825215936655
H         1.74772436440447      -1.31251920698620      -0.61767671989610
H         1.64195110708929      -1.34289479272228       1.15955142965890
H         2.67275884043528       2.33056087601841      -0.38478588122604
H         2.38320067718061       1.10249629892063      -1.63399185836901
H         0.29395256288646       0.17763709665250      -1.27033774895204
H         0.19197112489392       1.81570335742593      -0.59105803908959
H         4.04238201603398      -1.62222332046370      -0.19286731164502
H         3.96726070345869      -0.83941745694190       1.38993251367383
H         4.59398494681095       1.16234113731521       0.41799893026011
H         4.57781461821447       0.42786969897312      -1.18809322924345
H         1.13550184896346       0.55763452034034       2.32432945526664
H         2.74345931874677       1.22746079002030       1.96568948051978
H         1.28227677635933       2.18020905280748       1.59706264890689
H        -0.72007575249440      -0.70247011919494       0.90129419738680
H        -0.90148689921986       0.98488047139392       1.43353528604359
H        -2.14666286159757      -0.18747078352344      -1.09746493844417
H        -2.28217735879111       1.49374680516252      -0.55466290571062
H        -3.38300260722220       0.72953365023517       1.55100191277742
H        -3.25641750690816      -0.95161671994721       1.01162075117207
H        -4.79147797896324       1.26581179118948      -0.44058475266025
H        -4.66887113078981      -0.41445332023414      -0.98235573715520
H        -5.92919942571129       0.51218850345940       1.65321713946919
H        -6.80745562728069      -0.02633731762756       0.21289271928711
H        -5.80400019175574      -1.17152825794215       1.11766434980506
S         0.36548538692703       4.37747127532547       0.04952393495693
O         1.04630110069612       3.68780494497206      -1.04354437163869
O        -0.23546635636700       3.45575725794043       1.01021783042585
O        -0.44483195047849       5.49980673937151      -0.32825833134620
C         1.79410761848465       5.07472944957393       1.00850633746441
F         2.46942021006799       5.98652476653653       0.32618896099156
F         2.64603295589535       4.06091355268914       1.28177296678421
F         1.42164865621152       5.59937942164070       2.16693307691671
