34
C12H16F3NO2 optimized with ADF in AMS.
N         1.95823909627963       0.04653039833894      -0.60808350794576
C        -0.44738974533989      -0.00257003910044      -0.03517100516692
C        -1.86881195125201       0.03649273010638      -0.58705471386054
C         0.58707973954405       0.01905592416062      -1.15091524991908
C        -2.92422660934615      -0.00389402393624       0.51605056079052
C        -4.34610530069946       0.03828635443028      -0.03526704135103
C         2.49114713223170      -1.09343109043397      -0.10103656211946
C         2.68644496131374       1.18517384926145      -0.70358861662795
C         3.75744420665259      -1.10405726465220       0.42837404044457
C         3.95635599957640       1.23296200295444      -0.11492062499023
C         4.49770025462809       0.09080131648395       0.43531220328188
H        -0.31317596847109      -0.90820763719505       0.58428926128309
H        -0.27471914423620       0.86411763954397       0.62824265981153
H        -2.02221040246996      -0.81586202521811      -1.27467022323893
H        -2.00268198284788       0.95098322337952      -1.19390652995143
H         0.50982314481568      -0.85839974034535      -1.81133741913964
H         0.47518303470564       0.90612923719650      -1.78500280031985
H        -2.76308017375836       0.84760054287452       1.20224314377848
H        -2.78348273734571      -0.91996844748860       1.11893401448356
H        -4.51487248701861       0.96017001772312      -0.61463852739273
H        -5.09153459208977       0.00497088779771       0.77379364275306
H        -4.53319912435122      -0.81661748189180      -0.70475692511696
H         1.85247410736522      -1.97345071031794      -0.14119726242745
H         2.17442446311238       2.06225738388984      -1.08295463074319
H         4.16386301616745      -2.03168615701968       0.82865542566410
H         4.51147298906450       2.16868778539864      -0.15251301596391
H         5.49980409442277       0.10783822569571       0.86688943067240
C         3.11981886652370       1.24797196155154      -3.99985206027009
O         3.40902859926413       0.87283783090474      -2.81425837835600
O         3.75992282052237       1.11260393887941      -5.04451925659655
C         1.70665931446494       1.91140390577190      -4.17032231188159
F         1.58585405397311       2.65173789835250      -5.29255990909417
F         1.35013857785647       2.74608552493122      -3.11465132122329
F         0.72536037054176       0.94128003437247      -4.21855483436645
