54
C14H30F2N2O4S2 optimized with DFTB in AMS.
N         0.19243540748150       1.41642372212183       0.02540080529473
C         0.51705856703877       2.41734739272691       1.08899843531176
C        -0.31605979958697       2.26151526704261      -1.10963500309246
C         1.42910556707828       0.69179069289146      -0.43542733548799
C        -0.86807099844774       0.47497979261299       0.51709399503846
C         1.11960089065220       3.60369163163541       0.34555602033499
C         0.48073847003228       3.56384954085922      -1.05020598590254
C         2.10310140745152      -0.19806278411664       0.60262649880593
C        -1.25508219038010      -0.59206760161257      -0.50312655729822
C         3.24653033508836      -0.95243434278652      -0.09087874233858
C        -2.49952818356427      -1.35290526958067      -0.03508958677075
C         3.97475799952446      -1.87717556000217       0.88714643900176
C        -2.85584608164441      -2.44931276733434      -1.04518988594345
C         5.10241411548739      -2.63249507791170       0.18616441663299
C        -4.12312650730645      -3.19426440316555      -0.63347742973424
H         1.18497600614661       1.97224685097700       1.82532866231161
H        -0.42023551763262       2.69718295422695       1.57633449487723
H        -1.38002727042782       2.44057914248897      -0.93994711555999
H        -0.18314369588787       1.72285340269753      -2.05046893461027
H         2.12802345946350       1.45179367435391      -0.78813601769057
H         1.12898123409645       0.08498833662786      -1.28857752034797
H        -1.73725191933492       1.08961152483862       0.76920911836066
H        -0.49572172281284       0.01658298092067       1.43640668866902
H         2.20493308776592       3.50587138519748       0.27806429727076
H         0.89386248586688       4.53302895985406       0.87061395693470
H        -0.18599431926856       4.41379523806140      -1.20594513050963
H         1.24614650122432       3.58284631268815      -1.82690081249507
H         1.39401275128661      -0.92179923547209       1.01337985021005
H         2.50162532848168       0.39587103061159       1.43102933649241
H        -0.43612979441431      -1.30112777604311      -0.63644194262210
H        -1.46299933590549      -0.13070644566147      -1.47038232994531
H         3.95154772555059      -0.23141505697576      -0.51528681869513
H         2.83635984938122      -1.53938477894565      -0.91776748654691
H        -3.33866799073535      -0.65578338265173       0.06821173291358
H        -2.31109969738088      -1.79914795211787       0.94779372927159
H         3.26250373931827      -2.59413786786686       1.31025852938095
H         4.38643503341366      -1.28725416572468       1.71391228102137
H        -2.02275209475777      -3.15507437772212      -1.11900311668538
H        -2.99698172744846      -1.99840688930878      -2.03191745852078
H         5.60830875233219      -3.29005161319428       0.89338424151972
H         4.70502276555729      -3.23678748303475      -0.62976869384995
H         5.83212439098172      -1.93335747811433      -0.22374571901268
H        -4.35140232114169      -3.96868092298919      -1.36553737778276
H        -3.99266492123673      -3.66565912981163       0.34198888895694
H        -4.97028823926950      -2.50891898175093      -0.57733090490226
N         0.64829393883904       0.43841256881004      -3.58958565328768
S         0.30491542714481      -1.10189711302118      -3.79884786871059
S         2.18735727757658       0.84808718960840      -3.67698678190675
F         0.91105880315087      -1.78484281325583      -2.42459659967389
F         2.51169438626389       0.86263307750167      -5.24673045281280
O        -1.10644334110134      -1.24301679800287      -3.63215592949603
O         0.96832627335185      -1.78789637934708      -4.85090065906619
O         3.12570516168921      -0.06768268211318      -3.10789993605762
O         2.26334329376818       2.22274221518086      -3.27401069585469
