35
C9H18F3NO3S optimized with ForceField in AMS.
N         0.42635781954200       0.22897058469573       0.04210433151654
C        -0.52357078429238       1.27487193679174      -0.45281300820198
C        -0.09049715243686      -1.13530308583031      -0.28610967305665
C        -1.98094685528464       1.07693989208912       0.00219498469774
C        -1.53187586172640      -1.38025812683446       0.19441540235163
C         1.72776982623231       0.46396449373305      -0.66748440735236
C        -2.47980528939014      -0.31908203489431      -0.35287499584204
C         0.62916103708078       0.38268899786867       1.50858203407886
C         2.88361028319335      -0.47513881489703      -0.27412708500749
H        -0.53313461116889       1.28945566721471      -1.56778382618562
H        -0.19458947497739       2.28615673768006      -0.12163696831150
H         0.54343182210075      -1.92181422145444       0.17715010726785
H        -0.06438785081263      -1.30299775017283      -1.38754411962725
H        -2.62139191333371       1.82636663344474      -0.51185224146595
H        -2.08928294266597       1.25952052818174       1.09109194534716
H        -1.57658630680930      -1.39624887302561       1.30388781502156
H        -1.86699562760556      -2.37858967357416      -0.16159619232678
H         1.58973503321009       0.36695878117156      -1.76904915888705
H         2.07813497618442       1.50744218588311      -0.49120515898013
H        -3.49291461707599      -0.46982770229177       0.07845510797937
H        -2.55661139311090      -0.41962934862301      -1.45806265013606
H        -0.32441925502814       0.36987378257280       2.07056163801797
H         1.23641597324966      -0.44837650230721       1.92556149413236
H         1.13801334668870       1.34420074639167       1.74326827457122
H         3.77675470934717      -0.21492251233308      -0.88069608961017
H         3.16854095879247      -0.35102498192070       0.78988887816414
H         2.64310784132895      -1.53585945208890      -0.48554009084623
S         1.15916536060785       5.98087607546400      -1.05240651073296
O         0.55376331583287       5.79314194861121       0.34678171130583
O         2.60566221401325       5.49562252196353      -0.87499643364315
O         1.31443040294291       7.50502659946149      -1.16340016736837
C         0.23943091681025       5.19809254939576      -2.40886192306116
F        -1.04476278748074       5.70646841373393      -2.45078723311024
F         0.18635619943021       3.83415232754337      -2.20477418678593
F         0.87555924261165       5.45518551675583      -3.60795820001318
