33
C9H15F3N2O3S optimized with DFTB in AMS.
H         1.09940553735828      -0.81198659628918      -4.49293647054885
H        -0.00920855207723      -1.74238400240782      -3.44405692979309
H         1.75858431790477      -1.93278929418603      -3.26524624592136
C         0.95160452483755      -1.23452942835722      -3.50030106092569
H         2.24103617571996       2.32096078774002      -0.85071301121956
H         2.71786780889717       0.89700626503176      -3.17934614913218
H        -0.61829837964273      -0.75283840602645      -1.20874633749355
N         0.98175540540268      -0.16789289638463      -2.51457685998682
C         0.20432626214488      -0.09909710183675      -1.43752832022599
N         0.61153906845388       0.93569487811448      -0.70445416132936
C         1.71424945648384       1.49431002561289      -1.29294464001057
C         1.94665318906312       0.79919339606843      -2.43616137991280
C         0.07851059175569       1.29158763637325       0.60509785448938
H         0.27273366402577       2.35526332215684       0.76905008191973
H        -1.00352863099593       1.12796001057261       0.58564725377797
C         0.74260707315945       0.43690792879513       1.68975974891498
H         1.82152441439474       0.60774615569130       1.66484609185408
H         0.56982569882370      -0.61868447847515       1.46448687025666
C         0.18422835858845       0.78086953063440       3.07146042648519
H         0.36423346737101       1.83980323459812       3.28853451412273
H        -0.89938606623180       0.61675131059025       3.08210826114722
C         0.84269355303602      -0.08124086551683       4.14719173622931
H         1.92020115863353       0.08470090766524       4.16012647108263
H         0.65742406432035      -1.13803910695228       3.95335401713026
H         0.43814091577500       0.17086035200184       5.12759226265547
S         2.78507071087570      -1.74927023469747      -0.43137615379354
O         3.20967798905182      -0.48758661693824       0.15026407901213
O         3.29143010448321      -1.99637122054327      -1.77050526252288
O         1.35521641171567      -2.02044607649326      -0.28109426929546
C         3.58475850218531      -3.04045540007031       0.62325275750095
F         3.18446257317995      -2.91064698093089       1.88569749968533
F         4.90625928409861      -2.92835561416084       0.59163939496461
F         3.25642605930757      -4.25750820217995       0.20567908188308
