40
C12H26ClN optimized with DFTB in AMS.
N         0.99936211267252      -0.20005364953175       0.16875890765089
C         2.10307220110694       0.22101521527951      -0.76112022055088
C         1.68667100046564      -1.06777959185990       1.19389702915506
C         0.39502848115583       0.99396583672122       0.84838426622196
C        -0.01100228494874      -0.99635380285426      -0.60215965885294
C         3.01326357997210      -0.99140797353672      -0.85619075012235
C         2.98536199447097      -1.56957246887090       0.55981704314526
C        -0.27569672764322       1.97641667052061      -0.10652277784366
C        -1.26320151110208      -1.37618052866004       0.18717835784807
C        -0.73650085924270       3.20763399381187       0.68389111307425
C        -2.09885316414294      -2.37293204974432      -0.62580810565190
C        -1.41913953904543       4.22437761081735      -0.22782682322390
C        -3.37575877668642      -2.75524182520645       0.11942020685895
H         2.63308281191509       1.04397850111390      -0.27167056170587
H         1.68618024486578       0.53868263081020      -1.71634143523370
H         1.01709873412352      -1.87428339499477       1.49153130378404
H         1.91264904383826      -0.43895097920184       2.05659200681501
H        -0.31691335196750       0.62444755091271       1.58928957549340
H         1.22295453022453       1.48964357095197       1.36806444400675
H        -0.29488495652411      -0.40814440053805      -1.47828600986827
H         0.49744602725396      -1.90039825382250      -0.94651892560880
H         2.64193199534887      -1.71298171432488      -1.58974330564735
H         4.01937601201170      -0.68824682886346      -1.14810169308950
H         3.82775103652432      -1.17969496180858       1.13571357034812
H         3.03441057665826      -2.65977507252774       0.55094727788431
H         0.43098149458508       2.29068985709467      -0.87910945378768
H        -1.13854915472983       1.51931129798431      -0.60122896844756
H        -0.99567492394956      -1.82850435903188       1.14563555128838
H        -1.86685099567311      -0.48797359208884       0.39033844438867
H         0.12969921838256       3.67104984860537       1.16530715295630
H        -1.43184085455443       2.89503109000854       1.46997568092520
H        -2.35814994232945      -1.92641378193855      -1.59146755371982
H        -1.50518963698600      -3.27228479625511      -0.82027752771837
H        -2.29726510907917       3.78524648410178      -0.70391754797409
H        -0.73311521153546       4.56074938590176      -1.00615224887003
H        -1.73535062482883       5.08986683235776       0.35412280825120
H        -3.98969832365100      -1.87288840397766       0.30353760573737
H        -3.13530044286703      -3.21806299341558       1.07718547934737
H        -3.95324091507363      -3.46345278996446      -0.47429911071403
Cl        3.43275703288468       1.45633396722466       1.86360035625014
