36
C10H12F6N2O4S2 optimized with DFTB in AMS.
N        -0.68267556930847       0.77030339682835      -0.27430966506891
C         0.64610032180891       1.06701872658745      -0.82236743484146
C         1.75442679048935       0.67325069431110       0.15660111466697
C         3.07666390464606       1.30048806036603      -0.27883767907272
C        -1.12006609889018       1.51592917973076       0.75414952354009
C        -1.47936613447139      -0.13664741013167      -0.85955532884850
C        -2.39833519364455       1.34963925834354       1.24987021442980
C        -2.76198534539398      -0.34181746449652      -0.39847910991405
C        -3.23865831196440       0.41469349579805       0.66622244366614
H         0.75454098586191       0.53886908145809      -1.77162959953243
H         0.66944027565002       2.14614127104280      -1.00408953177702
H         1.84065012169282      -0.41709198167033       0.19569013410405
H         1.49831150909101       1.02864443041816       1.15858846332724
H         3.34876491146259       0.96748234147876      -1.28071415763537
H         3.86695686201433       1.01159135527461       0.41296540545174
H         2.99071600231852       2.38738617169164      -0.28047910247982
H        -0.43390686737160       2.24448184477978       1.16487114801241
H        -1.07384252775182      -0.67720099568698      -1.70599221348181
H        -2.73646016343498       1.99000096477402       2.05410690628546
H        -3.39182289308649      -1.06899723374932      -0.89415934604914
H        -4.25480863375126       0.28911869185220       1.01858995096799
N        -1.16285954640518       3.49337089101481      -0.96100765328201
S        -2.75039818829626       3.51869147240013      -1.19641203221479
S        -0.39180613486416       4.75004164594205      -0.32127735480250
C        -3.20177109846665       4.85816928948601      -2.42635730675644
C        -1.16169921189458       5.26510799886109       1.31202666002141
O        -3.05001118694148       2.27528152679400      -1.87254347207806
O        -3.50213499977113       3.81446559514541       0.00463939594190
O        -0.41569060657501       5.93602529402012      -1.13430626064403
O         0.88996419798850       4.20633447288917       0.07995558589670
F        -4.38077931535848       4.56382009687964      -2.94845933620414
F        -2.30102799467704       4.89941103234472      -3.39142456891313
F        -3.27139257483686       6.03023500897186      -1.83123743661384
F        -0.26053109477153       5.94679293141322       1.99697901107509
F        -1.47934075283421       4.17389441849531       2.01633306377482
F        -2.23462224766234       6.00493949744192       1.14979489604834
