44
C12H24F3NO3S optimized with ADF in AMS.
N        -1.07633124081286      -0.03311634101401      -0.05423770018607
C        -1.41031360193814      -1.01902824442642      -1.14879721722390
C        -2.31577374403052      -0.08429149498333       0.82374442681841
C         0.11575244273587      -0.51166576013837       0.75850751096165
C        -2.10116279632933      -2.18167241048626      -0.43347640932570
C        -2.69909857522584      -1.56280016911553       0.85943046237079
C        -0.84943730418643       1.34780601653533      -0.61577072088904
C         1.45481236166158      -0.48322938857788       0.04846494405504
C        -0.55354109869753       2.40877645027460       0.43027617333859
C         2.52730984093367      -1.02217348511580       1.00387433486262
C        -0.38907184609228       3.76755626921766      -0.24884208862764
C         3.91943723655155      -0.98592610508010       0.38308895344979
H        -2.09770077407217      -0.49999034815518      -1.83383227758522
H        -0.49471930837255      -1.28509121891331      -1.69145626599160
H        -2.07691082882374       0.34176879142125       1.81303877439869
H        -3.07558381780759       0.52226468117424       0.30634954408022
H        -0.12864257927527      -1.53040888940346       1.08510813718224
H         0.16445476531786       0.12251999026341       1.65593968580482
H        -2.86963149054238      -2.62231681641119      -1.08462128030483
H        -1.38341693997062      -2.97950399453194      -0.19360965289770
H        -2.28755400611260      -2.04112736175625       1.76008372975670
H        -3.79212390818442      -1.66913916831274       0.90538644454396
H        -0.02549918781176       1.26210397231074      -1.34149620149041
H        -1.76698510519270       1.59594536861103      -1.17521105750783
H         1.45310040111807      -1.08494500364074      -0.87863159082386
H         1.72591675259104       0.55088833165674      -0.22671036215162
H        -1.36835038114361       2.45052339215869       1.17142411703728
H         0.35359311130774       2.15785579987764       1.00191691751646
H         2.50137560993576      -0.42435729756115       1.93015674328600
H         2.26975097909228      -2.05730820190932       1.29157454251845
H         0.43387485386423       3.75371682196201      -0.98174491403562
H        -1.30815326817793       4.07050559678345      -0.77574114302824
H        -0.15881500768460       4.53949193822283       0.49887322244874
H         4.67133695216144      -1.38129600414978       1.08247030822298
H         3.96470733987264      -1.58872465208809      -0.53856103856216
H         4.20986069312020       0.04600465748463       0.12833406298285
S        -0.11719553890212       0.88646091501576       4.21657190769530
O         0.00401910629487       1.59558340013913       5.48537547714519
O         0.96688485950818       1.10778967586133       3.22876459625097
O        -1.47002529571499       0.85364022609419       3.60758858511384
C         0.13675800925292      -0.91780383565702       4.69263998379058
F        -0.76912352014754      -1.32552325018852       5.61691801022466
F         1.37925799288600      -1.13454449065611       5.19304067106039
F        -0.00507187445634      -1.74882749549216       3.59940330951422
