40
C12H22F3NO2 optimized with ADF in AMS.
N         0.42918367600812       0.17449619753602       0.23433811315516
C         0.07830311718336       1.12834972166956      -0.90114007654635
C        -0.32189650555004      -1.12344074260735       0.03004805459216
C         1.93121765721896      -0.08023342890533       0.13954375344707
C        -1.41526871882146       1.36467133118602      -1.02234222602731
C        -1.82667306703138      -0.94188459502582      -0.11216460338843
C         0.05652793948997       0.75538182638837       1.58785045504405
C        -2.16918526671185       0.04939405491468      -1.22501901210680
C         2.53217398107129      -0.90019624179818       1.26589803465544
C         0.75939569620053       2.04526077950207       1.95420468480437
C         4.01664875045791      -1.13021695434105       0.96696940612709
H         0.46626206605777       0.64331588417519      -1.81096362534526
H         0.68862302717269       2.03456979850414      -0.74951181392109
H        -0.07175752419914      -1.78156248305300       0.87325659637036
H         0.09599199332392      -1.56118206930064      -0.89057880775815
H         2.39539871262038       0.92399410013417       0.04194315959561
H         2.07086892796987      -0.58924851134397      -0.82726813701708
H        -1.56541151388072       2.03659880764777      -1.88345055457639
H        -1.80406092341424       1.90766189526347      -0.14397600504554
H        -2.27239184390014      -0.62105657143879       0.84403804421613
H        -2.25245109755254      -1.93606092814520      -0.32883278257473
H        -1.03024884894769       0.90173678129789       1.57217000054380
H         0.27144319721532      -0.04191427612548       2.31498168539199
H        -3.25690765406070       0.21860233522404      -1.26445688702451
H        -1.87671512936135      -0.38486341771635      -2.19850043102048
H         2.44168276090085      -0.36706114673418       2.22658646196433
H         2.02649998335956      -1.87535130840404       1.37959803957684
H         0.38276800252033       2.35785630785098       2.94067949286884
H         1.84927928002875       1.93519910741965       2.01359918426664
H         0.56758258633765       2.85345890665476       1.23660804317142
H         4.48562327915504      -1.73007956181123       1.76005471304765
H         4.14861831183885      -1.65970949431780       0.01113605797678
H         4.55003872791539      -0.17199247337555       0.88865886518376
C         3.26404178925064       3.19663838804744      -1.39713934253600
O         3.54646366373008       4.33682659308389      -1.77626292619174
O         2.57082892486238       2.78005025504303      -0.41602412457598
C         3.82832415422186       2.01895173577427      -2.28121021535266
F         4.54155884085663       1.09595665438529      -1.54081845722974
F         4.63814507286535       2.40957255994413      -3.29457663056429
F         2.79050652069780       1.29743061819713      -2.86917231739696
