42
C10H22F2N2O4S2 optimized with ADF in AMS.
N         0.37460502711346       0.04097971892214      -0.18134438832835
C        -0.28783244708770       0.63375185838788      -1.41877810486748
C         0.08220585266582      -1.45005788951466      -0.12600164983028
C         1.87467398245336       0.27525138273834      -0.33603339397674
C        -1.77835097073849       0.35684749096832      -1.48534642262849
C        -1.40445732674820      -1.75982795952937      -0.19879556083046
C        -2.04739394060589      -1.14691420912672      -1.44205502021572
C        -0.11183429345166       0.72279297527809       1.05303614741780
C         2.76376626285779      -0.41338265003774       0.67989710911796
C         4.21834933409671      -0.00779538534064       0.41873319488329
C         5.18620231013239      -0.72034107733388       1.35642785305247
H         0.23057572057864       0.18215450286083      -2.27662118307950
H        -0.05208917092585       1.70903053440387      -1.41018678875775
H         0.52709589887632      -1.82387714656665       0.80602533442908
H         0.62950323207919      -1.88691102938409      -0.97434989762859
H         2.00370258220218       1.36932921119196      -0.30765857162222
H         2.12748333533982      -0.06945866405091      -1.34560615195283
H        -2.13962640000530       0.79088098028669      -2.43226437764837
H        -2.32382083178752       0.87897647431524      -0.67912898971767
H        -1.92358930004142      -1.41993139019976       0.71473412447752
H        -1.49822357783701      -2.85853338838063      -0.21324008097062
H        -3.13064594987717      -1.34781695289388      -1.45296686800445
H        -1.61193412041719      -1.61521402450537      -2.34202305615838
H        -1.19194725750056       0.58631144140726       1.15373255053437
H         0.39788601665944       0.28888459740658       1.92068170667826
H         0.12371405190107       1.79178496793890       0.97416627361055
H         2.68813491505839      -1.50694186104786       0.56673757875836
H         2.49547691520081      -0.15248674133222       1.71964648180113
H         4.31948240546040       1.08701410139295       0.53047905941299
H         4.46483766891403      -0.24388579791617      -0.62994772922055
H         5.12568376626965      -1.81199201258288       1.22261114447504
H         4.96277756229872      -0.49357019546532       2.41204944802179
H         6.22349548437094      -0.41442263178453       1.15683457005270
N         2.87646700608339      -1.52665589091135      -4.61195630821329
S         3.14103298537527       0.01859911802917      -4.26320530193794
S         2.13062537183864      -2.46508695803004      -3.56568851995808
F         4.36696860253909      -0.06189797585319      -3.14027930051768
F         0.52342447320350      -1.95184108544224      -3.66552068132876
O         3.73930784651947       0.66049008464474      -5.40835035175475
O         2.07265563297143       0.68539373068346      -3.52224832076427
O         2.42758444585444      -2.22078605000428      -2.15290215495738
O         2.08966171710961      -3.81833363582203      -4.06761133575271
