56
C16H19F18N2P optimized with ForceField in AMS.
N         1.88065076467303      -0.96960251066675      -0.22378796572249
N         3.16890577703572       0.83825017213457      -0.11659617794745
C        -0.40633626191546      -1.89107822727697      -0.05336954374691
C        -1.09256298439496      -0.54764157764516      -0.33933274698044
C         0.96424946606604      -1.98775621099685      -0.73512444170200
C        -2.48940423258320      -0.49622541887683       0.28924497528697
C        -3.15717758255067       0.85931854056130       0.03063276009815
C         2.36610156586363       0.09097594983468      -0.89830871814278
C         2.39874816548705      -0.89274608457744       1.01914891640305
C        -4.55268863615607       0.91314261421995       0.64501611819635
C         3.19788209459534       0.23087091483453       1.08532035520017
C         3.85083139807469       2.07171393976602      -0.48405173109104
H        -0.28594080376791      -2.02700042792897       1.04354705965174
H        -1.04509011743172      -2.71837004683220      -0.43272901532828
H        -1.17870215419458      -0.40366090146696      -1.43897906783782
H        -0.47647131127311       0.27886838040835       0.07773199642704
H         0.83863940638800      -1.87280065720425      -1.83445153997198
H         1.39808869880488      -2.99421388368037      -0.55118230363221
H        -3.11751775957761      -1.30562118782908      -0.14421134813909
H        -2.40606695338571      -0.66142027739460       1.38624463981923
H        -2.53906728704171       1.67169437155704       0.47169303363221
H        -3.23935361775130       1.03471537625507      -1.06429300592908
H         2.12816231211705       0.32147887352240      -1.92952845865525
H         2.20548742978036      -1.59592532512544       1.81880628265017
H         3.75117962180946       0.58176958398873       1.94684153952647
H        -4.49675741737650       0.76087912145818       1.74399244244343
H        -5.00772979242625       1.90645473896556       0.44689684916790
H        -5.20122679104786       0.12977532893723       0.19808071319944
H         4.94821228279021       1.93780117170127      -0.38246622210892
H         3.61528431942143       2.34273274157429      -1.53440928161250
H         3.51787799307774       2.89573152427363       0.18134670391661
P         6.51121306883482       5.65307009234932      -4.44509030353532
F         4.99019040741445       5.17955466560458      -5.10578814150392
F         6.26384701469819       6.27939136008916      -2.85872094877118
F         6.78782459666080       4.81982235660988      -5.92474869338559
C         6.19127877132600       4.08717350864378      -3.35832564820843
C         5.65871381666933       7.31083688371257      -4.96486310689976
C         8.37507550725425       6.05501685432851      -4.68200357286030
C         6.25778967165559       2.73003052445879      -4.09234521599725
C         6.37049655443863       8.63144724340659      -4.57698976350968
C         9.37278056790388       4.88198824168447      -4.64432976288453
F         4.92110562923417       4.18057742409190      -2.80344002928012
F         7.08626639311408       4.03990280393427      -2.30104115153426
F         4.39083230470830       7.37701924949772      -4.39474244149174
F         5.50727380044929       7.31811103917364      -6.34342685445995
F         8.75336316922331       6.94408893664641      -3.69178755724244
F         8.54784520242381       6.67647998390238      -5.90781774050138
F         5.93922653421474       1.72130188427657      -3.20049281879798
F         7.52366114765261       2.48179665502733      -4.57548561349490
F         5.35540529320514       2.67350961940149      -5.13861428090573
F         5.51370836228880       9.68683559367274      -4.83733317228985
F         6.69307957346542       8.67572861907752      -3.23403813602630
F         7.50984947372571       8.83818967973448      -5.32669105540019
F         9.27397793170094       4.16570720956460      -3.47135552517460
F        10.65709660753580       5.39264194738494      -4.71419963664906
F         9.20035165509189       4.04190841653539      -5.72884733986622
