48
C12H26F2N2O4S2 optimized with DFTB in AMS.
N        -2.15419290323267      -0.53670985775011       0.03821364037616
C        -2.22680182353124       0.94957142535112       0.20270561021308
C        -3.26219297808181      -1.17977860810992       0.82678290139506
C        -0.85353908045419      -1.04305133179658       0.62032510383532
C        -3.58312866228806       1.51552096423671      -0.20165028841310
C        -4.64234891371912      -0.64128513587526       0.47580283643103
C        -4.70020365041272       0.87738593894229       0.62220662446204
C        -2.24286528024208      -0.92177352453182      -1.39772824702334
C         0.39432253707006      -0.64385607837210      -0.16171373166599
C         1.63922466466904      -1.08806989970117       0.61864629044845
C         2.89122695203221      -0.98042741399007      -0.25595880945541
C         4.13662686635571      -1.43660268824997       0.50965347109517
C         5.38656222333481      -1.35126568173975      -0.36437087130544
H        -1.43392660140594       1.39186081637058      -0.40305072396877
H        -2.03008784056762       1.16582853482334       1.25655242500919
H        -3.04341468144366      -0.99667132636387       1.88199691375371
H        -3.22125939007275      -2.25130376677188       0.63445470430834
H        -0.80072411871196      -0.66253933838009       1.64387845373410
H        -0.92914286991461      -2.13184170074637       0.65838206313796
H        -3.55650138202179       2.59404106930455      -0.02607692642245
H        -3.76012799491885       1.35498200038398      -1.26832274930121
H        -4.92211202160895      -0.93426007120506      -0.53919053926033
H        -5.35423382270515      -1.10967055982202       1.15991343569080
H        -4.58123784744565       1.15301321839759       1.67508468944264
H        -5.66925680689297       1.24747793941510       0.28030767355494
H        -1.56699394398488      -0.29699719233004      -1.97672381619941
H        -1.95309459003701      -1.97017237665020      -1.49273131695518
H        -3.25965631271137      -0.78745174042724      -1.75445486263088
H         0.39620695271641      -1.13521150672517      -1.13709529180166
H         0.43078828908338       0.43770054253129      -0.32229471738472
H         1.74909015494186      -0.46960080924022       1.51607767209204
H         1.51358289071132      -2.12625484159648       0.93747181746896
H         3.02037301408622       0.05516833449921      -0.59050806424078
H         2.75960466688873      -1.60780001573911      -1.14326388315030
H         3.99665431485420      -2.46964591757078       0.84362840309240
H         4.26930281719648      -0.81140302322119       1.39966391796622
H         5.28007626536535      -1.98713137656772      -1.24400590201358
H         5.55341412060413      -0.32517625507610      -0.69602100020502
H         6.25993025717893      -1.68069420473716       0.19889124682087
N        -1.31284828741556      -3.90061792874057      -1.41278990597034
S        -2.36639738375469      -4.60081756374007      -0.45972536740466
S         0.23742021762211      -4.17064511740764      -1.14256955707791
F        -1.99950708476083      -4.00042282107584       1.03448659733580
F         0.48440772415986      -5.66667366563802      -1.66165290546427
O        -3.63154709670724      -3.98400449583787      -0.73141475206517
O        -2.28884507266610      -6.00981779077727      -0.29893933524972
O         0.63148808248551      -4.18261191635141       0.23158253387553
O         0.96151930485314      -3.33453884979963      -2.04762226831019
