46
C14H30ClN optimized with ADF in AMS.
N        -0.08469383471015       1.50639197404338       0.14360832047222
C         0.50019388034472       2.47964932428597       1.17348664803977
C        -0.81420152142677       2.42808655143224      -0.82822600872107
C         1.01513658842824       0.76735699402929      -0.57993029461234
C        -1.06274530639955       0.57167056683050       0.82999617020991
C         0.61578745008998       3.84419519278380       0.47565564010443
C         0.09139462075114       3.63881216073084      -0.95917704914228
C         1.73011882760598      -0.29186195067220       0.24566019030965
C        -1.76261387527237      -0.39334714414688      -0.10919584392332
C         2.95490512249944      -0.82412889111558      -0.49956532077771
C        -2.79314535279566      -1.22163558075779       0.66395843999560
C         3.69644516949519      -1.91014092481308       0.27867235520962
C        -3.55220072664979      -2.20408994109973      -0.22667785207790
C         4.92005330243786      -2.42907895890634      -0.47080407125590
C        -4.58120028524174      -3.02306057140119       0.54876143288805
H         1.45014738190571       2.06383117536250       1.53354588858160
H        -0.25467557014303       2.54908543109714       1.97539879313708
H        -1.73981791310754       2.72265252953621      -0.28608663106732
H        -1.01581758002203       1.88384198750933      -1.76047886868986
H         1.72791689243157       1.53235656568567      -0.92260397332534
H         0.55750370657354       0.31026858974589      -1.47087233608719
H        -1.78953960541036       1.26354238050422       1.31425850500810
H        -0.49526240738124       0.04204030786485       1.61038329830238
H         1.64090840844772       4.24207305761915       0.49350252249109
H        -0.06079667410548       4.53167900491430       1.00776449888290
H        -0.49470731602353       4.50497998152631      -1.30114804060837
H         0.90786420537095       3.47541652238503      -1.68170333643198
H         1.04691623142151      -1.12885557800479       0.46461114001173
H         2.05150479323814       0.12160065036317       1.21639016727553
H        -1.05048807403289      -1.07500205580630      -0.60923774459286
H        -2.29032872967156       0.17146101289963      -0.89673272346925
H         3.64959199795862       0.01036918620281      -0.70879534812465
H         2.64585640864522      -1.22715399194562      -1.48208690977024
H        -3.50742165349254      -0.53549898428257       1.15257617054110
H        -2.28758737113743      -1.77981112858044       1.47415704393579
H         3.00470234906186      -2.74599110714012       0.48837927947469
H         4.00446904544064      -1.50690538805715       1.26052889927317
H        -2.83343109319902      -2.88329036422328      -0.72128622352285
H        -4.05889060586092      -1.64344120771598      -1.03323893620219
H         5.44192596438605      -3.20751511902515       0.10625556283434
H         4.63215788601427      -2.86269221183172      -1.44187504789747
H         5.63632841698305      -1.61496391685529      -0.66566416998918
H        -5.11564287336598      -3.72274531537309      -0.11207939715746
H        -4.09771153918225      -3.61177699010992       1.34486810124292
H        -5.32773620009964      -2.36711802077268       1.02354370462251
Cl       -2.59972833529994       3.34762893078464       1.77102689930254
