41
C11H22F3NO3S optimized with ForceField in AMS.
N        -1.45246251275019       0.40669703647630      -0.09517569428632
C        -1.77492465295737      -0.85985563451717      -0.81684395671147
C        -2.54232233117009       0.58943384902164       0.90609954896903
C        -0.14183460505807       0.31254350223936       0.61965056724614
C        -3.00324818862725      -1.47939430154140      -0.16911819927851
C        -3.68454876077959      -0.33018619601454       0.52349531451889
C        -1.46162178846311       1.55738965733899      -1.03602116149994
C         1.09843994926256       0.28794231324702      -0.30436181754495
C         2.35606416916496      -0.09615239970000       0.48480883402449
C         3.59977853567087      -0.07171936034168      -0.41004318846434
C         4.84921858853892      -0.44997466873449       0.37912048294620
H        -0.94702692203155      -1.60254183587914      -0.79085550998912
H        -2.00348317318152      -0.68268403796969      -1.89379072542403
H        -2.90232534192939       1.64228451493478       0.97639865540817
H        -2.21807219435142       0.30403433606850       1.93462559303623
H        -0.13298267952414      -0.60423301333272       1.25481116803778
H        -0.02658383260687       1.17823039030778       1.31246104760360
H        -2.68893785944262      -2.23620487885542       0.58417159483730
H        -3.67069406335903      -1.95866710847229      -0.91827391409123
H        -4.36800938037273       0.18768669192583      -0.18492816387744
H        -4.25659604584300      -0.67065466892916       1.41464356264237
H        -0.78571779131608       1.37958733003827      -1.90079096104928
H        -2.48097238453081       1.72488333941229      -1.45144468249454
H        -1.13902319472213       2.49158760932793      -0.52423956722650
H         0.96002981894118      -0.43408048044069      -1.13579932428573
H         1.25223900784372       1.29833876447093      -0.74139412525976
H         2.22784980307375      -1.11830127728911       0.90510316962419
H         2.49425335460118       0.61753115437978       1.32708086021429
H         3.73693902484174       0.94660191979945      -0.83511146071977
H         3.47187559990157      -0.78988694509380      -1.24926020678664
H         5.02697349698968       0.28362241256830       1.19417706696474
H         5.73096358082144      -0.45280615189578      -0.29578765744489
H         4.73330449427542      -1.46268607737271       0.81921747148568
S         5.25865195002088      -4.78952580556274       0.66444888725971
O         6.09775598936103      -6.03172438387998       0.99865195367165
O         6.31287251395868      -3.67976154867048       0.53986040692140
O         4.56452531446561      -4.46713701556397       1.99609206909282
C         4.15176842007822      -4.96793441047626      -0.75952470634477
F         3.28975462014530      -6.02539723637882      -0.54172942847987
F         4.89978849862959      -5.20976468370662      -1.89552222053140
F         3.42356932993065      -3.80552326083850      -0.92499408041420
