33
C9H15F3N2O3S optimized with DFTB in AMS.
H         0.71288954499328      -1.26300551707327      -4.29270508937499
H         1.06376581613802      -2.19911047342007      -2.80619206642815
H         2.32156130558170      -1.15966405958961      -3.50948042118482
C         1.24857176971430      -1.27248110469559      -3.34458754756199
H         0.45279061212119       2.96349277652411      -1.70020562518946
H         0.85943451800217       1.42382617076660      -3.96907568017670
H         0.73498962294891      -1.09836171037656      -0.60531812834465
N         0.81114120798840      -0.15693410530208      -2.52303918984023
C         0.67811851008833      -0.20479483577332      -1.20063467740868
N         0.50603578431373       1.03819301579664      -0.76048836565141
C         0.55365527269062       1.89956826861567      -1.82406666540603
C         0.75081478998271       1.14543319728785      -2.93580282431215
C         0.50357958531974       1.47185132389745       0.63569384144360
H         1.50795937460046       1.85584287410601       0.84503243931837
H        -0.22088067552946       2.28677269651856       0.72919558937975
C         0.18062792097994       0.32990588811170       1.59397492030412
H         0.98712015721582      -0.40689306385255       1.55276414216121
H        -0.75414615905196      -0.15619749968055       1.29604978629210
C         0.05825839636620       0.86407752606706       3.02459500609621
H         0.99037975513468       1.36600902054848       3.30253149084742
H        -0.74916592531559       1.60307812208635       3.07342085680905
C        -0.22340125025923      -0.26778095184935       4.01048922836961
H         0.58347184337645      -1.00069082305005       3.98875447974092
H        -1.15789046492598      -0.77132630540991       3.75906513504566
H        -0.30408587030539       0.13146070945079       5.02136875624549
S         3.54246874433833      -0.49876296613947      -0.79264518245143
O         2.94276258155107      -1.80541258092810      -1.04459638752872
O         3.08787488519065       0.12652488374678       0.44205905135752
O         3.53344221187555       0.38055498150955      -1.95048786521626
C         5.33040789422859      -0.86739088183200      -0.50615284439864
F         5.86102566217778      -1.43689282671660      -1.58303461553616
F         5.48261096287379      -1.69391445203439       0.52168453124595
F         6.00377557809524       0.24795801758989      -0.24922073274654
