26
C6H14BF4N optimized with ADF in AMS.
N         0.79203988063492      -0.15701684718045       0.00196497022968
C        -0.22175038375923       0.95401004472780      -0.22888938237597
C        -0.04952126799632      -1.39072422618685       0.41321376476963
C        -1.34597663973655       0.63557311448007       0.73782441689809
C        -1.48295690236794      -0.88663369043776       0.60323059831871
C         1.72403712835934       0.23390357780473       1.11731767796639
C         1.58411062891158      -0.43090170323784      -1.22962145644816
H        -0.55901493029750       0.86830373366874      -1.27417759240434
H         0.27842417366822       1.92122451743881      -0.07926378849930
H         0.38802657634092      -1.77831516443188       1.34611948728244
H         0.04744187203045      -2.13200607369248      -0.39119777396292
H        -2.26704932679655       1.17566853565643       0.47435126113945
H        -1.06669477722040       0.89119553857497       1.77148670329475
H        -1.92101007036492      -1.33024510964211       1.50817729765064
H        -2.10652660879003      -1.14132406846682      -0.26982936767385
H         2.33772986309059       1.07641197460098       0.77104663543994
H         1.13975231860709       0.49970304868159       2.00452992250018
H         2.33854169276126      -0.63426009510688       1.38305238566696
H         0.90192080739817      -0.73282707484155      -2.03475674292420
H         2.12667227300720       0.48030904764720      -1.51533137970008
H         2.29669328632082      -1.23720325212867      -1.01457439883643
B         0.84099711456136      -1.17232010558510       3.97622082869893
F         1.72905799562715      -0.07210986147506       4.12517753191958
F        -0.37809302667787      -0.67624100456362       3.37130602332713
F         0.56808703346730      -1.80392659996170       5.18540752136978
F         1.42371007982096      -2.10658708304256       3.03404452835296
