34
C10H21NO2 optimized with DFTB in AMS.
N         0.65291957789144      -0.06646724210940       0.38663549615910
C        -0.00662073545692       1.27595964781781       0.25149703795294
C        -0.01207520355586      -1.05170111624175      -0.51876646173044
C        -1.51021742505339       1.23209478751835       0.48060066175414
C        -1.51001582639278      -1.15677560292611      -0.25508218595301
C         2.08952539261404       0.12639467502716      -0.03714020145526
C        -2.18136749987230       0.20473744295285      -0.43032167987213
C         0.61312855310029      -0.51685739629351       1.80497766020385
C         3.00589022754839      -1.03589548149313       0.30250521430308
H         0.20747985191491       1.63307052693789      -0.75952367727153
H         0.49005110203841       1.93368887646132       0.97594371641628
H         0.47071662259484      -2.02026361102122      -0.37326659283932
H         0.16334759058834      -0.71959093031835      -1.54619997642549
H        -1.90173440514961       2.22962918563926       0.26548789213093
H        -1.73741186887945       1.00838287995630       1.52608749158827
H        -1.69180324683455      -1.54122789853697       0.75213131570944
H        -1.92603903539882      -1.87397998153640      -0.96763965713667
H         2.07769444674256       0.31686420474952      -1.11398674494943
H         2.43357228034202       1.02460367396595       0.48825526546404
H        -3.24352392679528       0.12692256712585      -0.18603404729490
H        -2.09388966887316       0.52308187733543      -1.47443458009098
H        -0.38317355534983      -0.37629864666967       2.21382079765527
H         0.88119404171375      -1.56994549786351       1.85255293494316
H         1.35158663810368       0.07753971406154       2.36079324918896
H         3.96345312228417      -0.85076185954288      -0.18383411844399
H         3.17694650707486      -1.07725155733379       1.37732798902174
H         2.61923645813668      -1.99277048589904      -0.04900333330972
C         3.73401735820118       2.88063484996092       3.63989089216321
C         2.91635881828182       1.95075735291409       2.71769083493388
O         3.05825332425556       0.72081249807690       2.88405297433034
O         2.18305639208467       2.50402699825520       1.86571384086086
H         3.88177087308213       2.40994346329056       4.61009035386436
H         4.70725719203113       3.04849093682995       3.17836182014069
H         3.22741249678707       3.83696350090885       3.75465906148834
