55
C15H20F18NP optimized with ADF in AMS.
N         0.98291801129681       0.59053052209314       0.08681102823267
C        -0.16740858930831      -0.38783541812137       0.18998873719401
C         0.36182221456364       1.87463595183160       0.61430511442882
C        -0.84359481411380      -0.06648812221508       1.51800006073806
C        -0.56845329305218       1.44118281215397       1.75114250281595
C         2.13377897877356       0.18029220238086       0.99929780457957
C         1.42240582175041       0.72608150519849      -1.35521389042761
C         2.89087380906226      -1.05880900301311       0.55405101808140
C         2.53994720483313       1.72179031838849      -1.57523855668788
C         3.93817558640106      -1.43768361673376       1.60471649067473
H         0.21192074091058      -1.41187420188788       0.09149540303939
H        -0.83106965141811      -0.16772748702957      -0.66018946056473
H        -0.19481165491388       2.31187705054528      -0.22823707797856
H         1.15375880030166       2.56003425828114       0.92872881508976
H        -0.42332202606286      -0.67436527674496       2.33208762575101
H        -1.91668236904240      -0.29768752471019       1.46140731365077
H        -1.49080980283812       2.03729875374127       1.72218990995218
H        -0.09473030257925       1.61694281462798       2.72574969628893
H         1.69463594562095       0.03621125952432       1.99603449765288
H         2.80058843660781       1.04678597954940       1.07765745865059
H         1.70513748146030      -0.28434395749829      -1.68574575999218
H         0.51622333285843       1.01933711216183      -1.90799438082525
H         2.20398645826976      -1.90934093805991       0.39917784463016
H         3.40035091236904      -0.86953177902054      -0.40521821051711
H         2.26504177172053       2.73537819331703      -1.25572197322682
H         3.46591659033183       1.44269783971085      -1.05647442032841
H         2.75836754316493       1.75745325800328      -2.65324528829755
H         4.66432325928006      -0.62692717850360       1.74838047803563
H         3.46798185580783      -1.64063196716583       2.57903022686861
H         4.47919629454377      -2.34107550597986       1.29030187315369
P         4.79872579350623       3.11378758077871       3.16210592448862
F         4.99723630157092       2.19354820808679       4.52756361753902
F         5.13977826901350       4.54617096681824       3.91216710722595
F         4.43225136991490       1.70107693647463       2.30242096409329
C         6.73091272885626       2.82514605424773       2.91319020787434
C         2.87492897548013       3.30311287100639       3.84700521292489
C         4.35115676241358       4.07956858029068       1.43144264361272
C         7.24932077919723       1.39198241527486       2.57417683929545
C         1.87791534040680       4.49609298607855       3.62945951826755
C         5.17321990614275       4.12386203692040       0.10434677761378
F         7.36804425272774       3.16011315370436       4.08485265417608
F         7.26246533707050       3.64502441365280       1.93909509720788
F         2.96565832836562       3.29453006417283       5.21987502721500
F         2.13908860099202       2.16614899194841       3.49431926875888
F         4.04165102101304       5.39108314975988       1.68688792779601
F         3.16321928518304       3.46305402647108       0.99995256928887
F         8.61143851877406       1.38987019443197       2.60092425606480
F         6.87437347502689       0.99300383963418       1.32874322338637
F         6.81901828953658       0.46606100515772       3.45991976311551
F         0.77235951378604       4.27827552040302       4.40909292433921
F         2.42632156013336       5.66614849233071       4.00464644003449
F         1.40702773309699       4.62429291642781       2.35984161310443
F         6.18245854664000       5.01023209240637       0.14106428997672
F         4.34590404928127       4.51952212659371      -0.91863824639213
F         5.64607852427109       2.89746835070320      -0.22802757127047
