52
C14H18F18NP optimized with ForceField in AMS.
N         0.00994203024297      -0.01888513695116       0.03085981244370
C         0.93381851020587      -0.86259015092838      -0.78812591448243
C         0.90765640178333       0.84071745077976       0.86271132582799
C         2.33538238838217      -0.30159317615756      -0.64742405697281
C         2.32597827669338       0.32237595489984       0.71942078878198
C        -0.82485795355872      -0.88285233447954       0.92731421247674
C        -0.82530756307881       0.83017642547446      -0.87924864088207
C        -1.80682458022912      -1.80834055487019       0.18656128661258
C        -1.83654750463881       1.73847336410146      -0.15698362352340
H         0.65059109728162      -0.90979645549235      -1.86454361164597
H         0.97175654565610      -1.91613516191719      -0.42682717279731
H         0.62059061879865       0.86599783342029       1.93887046991561
H         0.91669708780736       1.89945922486841       0.51518756801764
H         2.50921814426880       0.48026335038335      -1.41970509756134
H         3.11192463027070      -1.09283550919597      -0.73261064922900
H         2.52447406644599      -0.45404278640788       1.49113498962217
H         3.07841588560751       1.13670557411019       0.80364879834719
H        -0.16509464508314      -1.52013578563365       1.56026060812004
H        -1.40947620794215      -0.26208324348541       1.64154265243125
H        -0.16632009115113       1.47882559004309      -1.50141917418254
H        -1.38736877468261       0.19885284629936      -1.60223646236232
H        -2.24532395638272      -2.52798786109701       0.90916817015051
H        -2.64284192610524      -1.22956085848431      -0.25575994457876
H        -1.30332241193590      -2.38928739832087      -0.61226555171967
H        -2.28156114319739       2.44228167450570      -0.89178874896905
H        -2.66551562361349       1.14494881982068       0.27879359326110
H        -1.35626138519835       2.33660146713040       0.64339763151799
P        -2.24506595545347      -2.37518442553882       7.03514832984126
F        -1.52484062874213      -1.59171581974205       8.38923839928653
F        -3.85050766406905      -1.81273608754304       6.75714683110579
F        -0.59287222338615      -2.84137087558288       6.91650672485305
C        -1.95528298153609      -0.59996363498257       6.30903200740544
C        -2.93468086787328      -3.25755654664684       8.61745141205519
C        -2.33207236333859      -3.77305395008530       5.70313368595462
C        -0.49320327905116      -0.08327263149788       6.24683026041659
C        -4.01599524540888      -4.34003447998355       8.41016232886440
C        -1.79936989479048      -3.44583202589167       4.29503119677543
F        -2.66134141060611       0.32051657277343       7.07424663450197
F        -2.46880071464028      -0.52979851471203       5.02907249991393
F        -3.50956050375359      -2.31171240631323       9.46171266450696
F        -1.88336668557239      -3.86131633431105       9.29348183115754
F        -3.65574657539193      -4.13214257963038       5.52587017571174
F        -1.65496325006973      -4.89572621194633       6.15869015756658
F        -0.48620346177603       1.15002260189552       5.61900256778245
F         0.32646502971878      -0.92330872704843       5.52464064144410
F         0.04170935928372       0.08877101338829       7.51075167890168
F        -4.49406358378547      -4.73214210390558       9.64872389996816
F        -5.08579012989822      -3.85498651800312       7.68168976020048
F        -3.50064917563063      -5.46446665057076       7.79704449787582
F        -2.63533488086138      -2.55841303869016       3.64641004362599
F        -1.77447406382149      -4.61084305918162       3.54847153648183
F        -0.51758546319282      -2.94383961666545       4.32934278568262
