34
C10H21NO2 optimized with DFTB in AMS.
N        -0.04092877360149       0.87498461517307       0.14251162730351
C        -1.14890367232758       1.32411035434224      -0.76841708741757
C        -0.77900646224577       0.20678900332551       1.25981537053420
C        -2.20849023053997       0.22891442632745      -0.70294712304659
C        -1.92820420775211      -0.54105367183822       0.59607581249569
C         0.84691919456473      -0.07816721190548      -0.59513243725312
C         0.71917659683758       2.04956105298339       0.64068801067820
C         2.06086524089610      -0.56120874912945       0.19809077654609
C         2.79417858715910      -1.64299351993729      -0.59438320801757
H        -0.75095305423421       1.50368457066536      -1.76776736037644
H        -1.53851870021928       2.25699910210334      -0.34293786927863
H        -1.18247285023622       1.00492390834171       1.88860558512289
H        -0.10543925260963      -0.42792485218270       1.83433432815202
H        -2.16238647689474      -0.43106609196154      -1.57272003320520
H        -3.19434740481583       0.69418408362586      -0.66036372787272
H        -2.79670721236914      -0.51283424270158       1.25480401458023
H        -1.66662572527752      -1.58309932331510       0.39416556748400
H         1.18332761698610       0.43558951668938      -1.50004691620075
H         0.23008275358641      -0.93029872018420      -0.89086781374038
H         1.29799598789870       2.47048579634311      -0.17965092540540
H        -0.00979683323477       2.78512133431597       1.00244146325877
H         1.37560049948406       1.73883016130205       1.45030544066755
H         2.74372031709840       0.27173308743641       0.38435535041144
H         1.75267736126793      -0.97010749851281       1.16357719965842
H         3.66800919938977      -1.97779502153024      -0.03670099586711
H         2.14229135880898      -2.49971336841083      -0.76785289622945
H         3.12397349108681      -1.25452035015654      -1.55841423051260
C        -3.74007928560025       4.16162917629441       2.23192483461188
C        -2.75642689673235       3.18982069122727       1.54103019147604
O        -3.04969723295865       1.97700046501522       1.54529776106823
O        -1.73509940605534       3.70703815177193       1.02936732221914
H        -4.62473775226046       3.62860271346274       2.57450367629246
H        -3.23806008743740       4.62509444834530       3.08030217426665
H        -4.02399300696191       4.94292453277430       1.52839009409609
