35
C9H18F3NO3S optimized with ForceField in AMS.
N         0.00822389329803      -0.00148434935036       0.00692638657625
C         0.92515515532195      -0.83745073058789      -0.82755942385043
C         0.91231180498744       0.85202375887187       0.83763794345503
C         2.33160988206608      -0.28918384470256      -0.68044068211826
C         2.32721547216837       0.32690263847446       0.68974512264916
C        -0.81618001820373      -0.87400657378582       0.90501161266093
C        -0.83712641444085       0.85574222424058      -0.88629082561571
C        -1.79700714635302      -1.80610040688592       0.16958811833700
C        -1.83219777611064       1.76616320981058      -0.14284056576211
H         0.63853234130148      -0.86555731872882      -1.90370925869562
H         0.95791535497697      -1.89705617132711      -0.48434326914135
H         0.62689238526836       0.87835259908937       1.91417803798823
H         0.92662642793921       1.91115350299062       0.49157443357798
H         2.51397331691475       0.49545170208416      -1.44793660856431
H         3.10188539569180      -1.08637040240813      -0.76870777224039
H         2.52274273673039      -0.45457010908816       1.45723445595163
H         3.08424919199643       1.13669790268940       0.77755837545457
H        -0.14851693524813      -1.50871407763827       1.53174968420395
H        -1.39956676356590      -0.25976396224240       1.62522237367586
H        -0.18502486983339       1.50484458218620      -1.51492194443041
H        -1.41131578545970       0.23135981145148      -1.60522484085414
H        -2.26907955581393      -2.48897867710643       0.90714401250288
H        -2.61061363615963      -1.23178033264510      -0.31727031100943
H        -1.28234894151515      -2.42876171797734      -0.58979542655832
H        -2.31865864740479       2.44490012914009      -0.87219230828044
H        -2.63485228419856       1.17486689524823       0.34137745921153
H        -1.32676211194282       2.39372430937030       0.61849023281387
S        -4.41730910301833       4.97594196105417      -4.53026177883634
O        -3.42338876494283       5.70998054161129      -5.44191261444816
O        -4.96061734587564       3.85963850783160      -5.43387075263471
O        -5.59591955043257       5.95562667813088      -4.43571681642125
C        -3.74019193086004       4.42081347433899      -2.94380817324381
F        -3.30550790809677       5.51443925680012      -2.22039466861154
F        -2.67826474821882       3.56896056938759      -3.17636797049996
F        -4.72003190186603       3.75620061647235      -2.23185788834218
