31
C9H14F6NP optimized with ForceField in AMS.
N         1.10517967801189      -0.00967966741989       0.54540830049249
C        -1.25428478194603       0.00069198308176      -0.13366152400567
C        -0.27521115993737      -0.01592130192905       1.04453084666375
C        -2.70845236335563      -0.00355901769104       0.34754577035874
C        -3.67458609531899       0.01228296666555      -0.83366729146243
C         1.73441075042180       1.18115279243870       0.30422859535975
C         1.73205787966906      -1.19414871904425       0.26951490536517
C         3.02106758281331       1.20557189976535      -0.23908676534879
C         3.01849401501037      -1.20539983921825      -0.27421478128265
C         3.66016659080072       0.00327929546662      -0.53801863471825
H        -1.07263484825837      -0.89364218713964      -0.76953683571854
H        -1.07022261140225       0.91069283385016      -0.74617298090652
H        -0.45343188371949      -0.91864125042418       1.67096127542472
H        -0.45270599597698       0.86910356355316       1.69588010135807
H        -2.89932077443620      -0.91351572160259       0.95714756900343
H        -2.89711175887044       0.89146577732557       0.97953339840748
H        -4.72011046387350       0.00880577446693      -0.46013227402837
H        -3.51922934274595       0.92556962927205      -1.44688249532810
H        -3.52129645145314      -0.88577061173229      -1.46948586907703
H         1.23544846146889       2.11973567288031       0.51538102833245
H         1.23139712509659      -2.13751464444671       0.45309772554135
H         3.51269468576068       2.14936675187133      -0.43777798463231
H         3.50839762893088      -2.14377307394559      -0.50048713240750
H         4.64589917825550       0.00725596494829      -0.98163012067395
P         8.51722105447278      -0.06444088784798       0.28883145141135
F         6.91639954440714       0.51130650700730       0.06590403279000
F         9.09280351832579       1.50968618893951      -0.08696970710334
F         8.39503771142408       0.35068897828390       1.95108180137759
F        10.13399749788926      -0.58433288386210       0.54619154477011
F         7.91648972059602      -1.63573087771889       0.63767851409061
F         8.60673616263958      -0.49353113379402      -1.37229933785361
