42
C10H18F6N2O4S2 optimized with ForceField in AMS.
N        -0.37408584241755       0.38128392489737       0.07068577570158
C        -1.43152623486927       0.65160824437721      -0.94435992291752
C        -0.86088217352236      -0.79148798519287       0.85607575735694
C        -2.69064249709370      -0.06606125912084      -0.50239250590322
C        -2.17222253404569      -1.26327790893766       0.24691131803216
C         0.91232639779204       0.07769554870766      -0.62958039581092
C        -0.23179408280046       1.57219410595342       0.94835051593285
C         2.13485652496450      -0.06703402512714       0.30567774353720
C         3.34459622290690      -0.60614338981724      -0.45284873510840
H        -1.15725491141269       0.25217038874507      -1.94918830545127
H        -1.63672491540641       1.73824986838433      -1.08519315435820
H        -1.04788946947730      -0.53231816536615       1.92438223569604
H        -0.14532012447846      -1.64306235627998       0.86009748890921
H        -3.32265668914685      -0.36635767734176      -1.36663114145922
H        -3.27664060798394       0.58427155628468       0.18377975983971
H        -2.89332527831989      -1.60372276125913       1.02147167815161
H        -1.97679656387092      -2.09372991802075      -0.46819814366156
H         1.14234939861257       0.88488321020429      -1.36299474781176
H         0.80073379764718      -0.86370376709825      -1.21698569088278
H         0.21655257609126       2.42492429415166       0.39101637421224
H        -1.22078089642935       1.89795813911093       1.34214573413230
H         0.40969758917041       1.35266000300502       1.82955100865352
H         2.40853205548826       0.92517919279380       0.72166114214198
H         1.91531053796880      -0.75020794843741       1.15163559958033
H         4.20366915703323      -0.70518635037187       0.24192329450117
H         3.12233915801503      -1.60742904498192      -0.87900216895173
H         3.62687356531348       0.08891618607861      -1.27228962265242
N         8.66602292172871       2.05953689516131       2.44843224668695
S         7.08980918005753       2.02519361048498       2.89346268789703
S         9.41816184250103       3.43112795974884       1.96095913238404
C         6.09135445292457       1.63567729656025       1.47264987480496
C        10.32710738540607       4.11263386304855       3.33145974758204
O         6.89349523106752       0.95643620796289       3.93131120887538
O         6.66765979556752       3.35517685353454       3.45319023983051
O         8.41953573005122       4.44177992125113       1.46919032226309
O        10.38252891283108       3.09835385364161       0.85778144824791
F         4.76546005032160       1.56100875600779       1.85086567369563
F         6.49060199690431       0.42082585529544       0.94987310457204
F         6.23829386151123       2.61677593019171       0.51103945041180
F        10.95624326512534       5.27655240311046       2.93463824860956
F        11.27490295588558       3.20130563844057       3.75608528670705
F         9.46255357318789       4.39135879581885       4.37271934142217
