38
C10H19F6N2P optimized with ADF in AMS.
N         1.25467122433028      -1.16662388726036       0.54498019541309
N        -0.85933171235076      -1.19965419673781       0.03790348664272
C         2.52546206559099      -0.84867768175323       1.22842047465530
C         3.14571158519575       0.42523497518648       0.67057666863019
C        -2.29138646687118      -0.88953255908486       0.04181308981514
C         0.03569115339632      -0.79546674418374       0.95431599920601
C         2.33482532943987       1.69087398503775       0.92803858974066
C         1.14728462064531      -1.81429237451194      -0.66750292017965
C        -0.18115465050085      -1.83231807629584      -0.98555631160550
C        -2.61453228366897       0.27182494893979      -0.89746922183800
C         3.01613252875782       2.93091912186360       0.35173677111116
C        -1.93608086831853       1.57573390771102      -0.49119017443998
H         2.29142848128831      -0.75935576713710       2.30056538330178
H         3.19151045452391      -1.70858517436881       1.06780190940542
H         3.33124145296417       0.27675850359312      -0.40600361082840
H         4.14731955467207       0.50782955947207       1.12626150384952
H        -2.57066555734368      -0.64830465929501       1.07902481780534
H        -2.82790278562477      -1.80700925929030      -0.24429970074444
H        -0.19110090697615      -0.25647836278285       1.86437602985625
H         1.32917877757337       1.59610145670454       0.47708355117402
H         2.18200947183246       1.82076788085491       2.01707954742280
H         2.03300151767451      -2.20030927151782      -1.16849129814793
H        -0.69871172080389      -2.25760725780072      -1.83664030799583
H        -2.32312959671798      -0.00598349840698      -1.92531600376735
H        -3.71146650900432       0.39207963504386      -0.90555704985951
H         3.14207193807416       2.83249630074778      -0.73766366622773
H         4.01818454402483       3.06220351213233       0.78882323842611
H         2.43645722531690       3.84497705058250       0.54972885369335
H        -0.83929749619946       1.48493241260807      -0.51310800326857
H        -2.23583652560307       1.88168473211867       0.52469224187658
H        -2.20842039694808       2.39065812012887      -1.17784520402266
P         4.98135233066981      -2.69150678672129      -1.21904480431799
F         3.70447256009603      -3.35855617371271      -0.33291671105514
F         3.89303777487104      -1.51963377377551      -1.77670900628928
F         5.30890289240273      -1.70989667994804       0.08643171791612
F         6.17705737732352      -1.97792071177313      -2.07446461963159
F         5.98912217062744      -3.83566229993187      -0.63395518677774
F         4.56485903374008      -3.63955938323542      -2.49342460194428
