40
C12H22F3NO2 optimized with DFTB in AMS.
N        -0.38518940685182       0.41468166833053       0.55710465483097
C        -1.46459545123133       1.35835759664940       0.08806286239077
C        -0.82611488829773      -1.01101029133237       0.37041041828106
C         0.81510308421416       0.68726533399157      -0.30977348682028
C        -2.84100465698693       1.06707131585494       0.67284626925911
C        -2.19393681738070      -1.30151945009100       0.97589552865739
C        -3.25226328612590      -0.37395477158676       0.39041445534838
C        -0.04126630283363       0.68828946171426       1.97978822278605
C         2.05783209345682      -0.13831459832877       0.01717436080574
C         3.18065795762070       0.22513656201193      -0.96342098828850
C         4.44559241668992      -0.57847874238596      -0.67007323315361
H        -1.50161938698878       1.26982341303500      -1.00230503990827
H        -1.13560345592521       2.36707565543378       0.34836588937824
H        -0.06681515058851      -1.64811704203707       0.82744973901444
H        -0.84381010252983      -1.19556617417852      -0.70826730918309
H         1.04121009195811       1.75209670243452      -0.20443945507705
H         0.51147064781805       0.49889921455260      -1.34328054405392
H        -3.54208974818780       1.76327170405888       0.20549791941571
H        -2.85523238318149       1.24353395903461       1.75100808891942
H        -2.16689130964341      -1.18419070085920       2.06110838117601
H        -2.43308968768108      -2.34395467921998       0.75127656886384
H        -4.21384773683435      -0.57613683656001       0.86431586902419
H        -3.35027782631853      -0.54023812587904      -0.68834252837171
H        -0.93489865628893       0.62752909635593       2.60011226146512
H         0.67778676756909      -0.05189019754422       2.32165619249446
H         0.38795251766770       1.68624058578842       2.04804273570360
H         1.84161686872256      -1.20639587286234      -0.06598691913601
H         2.39546006076154       0.06326264002199       1.03652611684863
H         3.39947961151197       1.29502026130065      -0.88426142748088
H         2.84824432705542       0.02497447993363      -1.98736891564838
H         4.25037930014396      -1.64712430987565      -0.76493816405785
H         4.80033207120160      -0.37739448758641       0.34122287370366
H         5.22944156019984      -0.30360327231415      -1.37522823481473
C        -3.26979530643415      -0.10346883655821       4.48709989264367
O        -3.23373722675840      -0.28358410421670       5.68177672954901
O        -2.45079531785999       0.34278088972082       3.66597325914313
C        -4.65063942095752      -0.55006532911804       3.73950359866651
F        -5.05726289449576       0.38865075498258       2.84683538038981
F        -5.69007532196204      -0.80058024017269       4.53829774691739
F        -4.44293035194762      -1.67587322129897       3.00154793931801
