36
C8H14F6N2O4S2 optimized with DFTB in AMS.
N         1.43601860179894      -0.12907209919397       0.05206006783445
C         0.08405383155880       0.49989690964195       0.16857025590816
C         1.14487403742644      -1.57932598499955      -0.19231685727853
C        -0.79504634174388      -0.24046483368196      -0.83707413366441
C        -0.10713267891126      -1.59649573525771      -1.06321742682003
C         2.21715993707401       0.07865760215731       1.29953796399428
C         2.18061916712248       0.44728481476139      -1.10002985554644
H         0.16534821102261       1.57025283890911      -0.02223953859791
H        -0.26733378960214       0.34008921172675       1.19039933070588
H         0.97293062359763      -2.05160455034225       0.77609902208912
H         2.00739940633191      -2.04403674251046      -0.66731534368336
H        -0.86878215388703       0.31842789733442      -1.77214331542698
H        -1.80240114828688      -0.36191706560130      -0.43571628264859
H        -0.75411167964609      -2.42611460397138      -0.77365482061623
H         0.15427209423966      -1.72424356038790      -2.11540513384115
H         2.31519641580698       1.14818582311382       1.47404337793626
H         1.69496559381278      -0.39405370125187       2.12876600932061
H         3.20415295881545      -0.36640226648009       1.18658199219375
H         1.57337195150367       0.36353684087675      -1.99810469382588
H         2.39889530092826       1.49225632357782      -0.88994963164519
H         3.10872645327036      -0.10696365863074      -1.22650819996336
N         5.22703181245153      -1.26972992473601       1.34757444836742
S         6.49877755894993      -0.52590496282411       0.68817098899415
S         4.51036507675814      -2.38212642036599       0.45056853278000
C         5.77324460384338       0.86393240005112      -0.34942516887155
C         5.62219828469110      -3.88709603681576       0.24065149978245
O         7.16752888860483       0.17789876031097       1.74345813604091
O         7.26268291341870      -1.32476731072334      -0.23065285749321
O         4.18903756934444      -1.95738224283642      -0.90837423750687
O         3.38574627405651      -2.86073801513570       1.23303438263880
F         6.61200237065099       1.87920061953959      -0.41966558621107
F         4.63972750364263       1.30279382303151       0.23249945048643
F         5.45918920475130       0.48178270191894      -1.57701503750220
F         4.86618349897162      -4.96910337231149       0.34759537155287
F         6.54065398127044      -3.90945389396856       1.18529985713538
F         6.19420269996180      -3.88130391442492      -0.94301864961794
