48
C12H22F6N2O4S2 optimized with DFTB in AMS.
N         0.64115787277013      -0.34417008951364      -0.06080075318357
C         1.03099305530293      -1.31772305461340      -1.13706946303820
C        -0.69773097895300       0.15205680392835      -0.51237708867398
C         0.50053171170619      -0.72482085021704      -2.43966893607684
C        -0.59031056375054       0.27536551538870      -2.02949907983885
C         1.64491294923338       0.77709427076344      -0.03331860969750
C         0.51231232883885      -1.02742816982134       1.26678988430785
C         1.43242057163331       1.83328654221115       1.04594310274406
C         1.82082701792332      -1.61629823884712       1.79006556359653
C         2.45863826490915       2.94780013503553       0.83161645178396
C         1.55437957442574      -2.41778185932131       3.06260919210272
H         2.11641737368449      -1.44073353689075      -1.13834005259239
H         0.55141773256795      -2.27245189625570      -0.90993399144341
H        -1.44061865542369      -0.59891536020968      -0.23329278886555
H        -0.93282922419697       1.09075539117415      -0.01216208307448
H         1.30104529912495      -0.22132492782524      -2.98368077312148
H         0.09967407840993      -1.51693026381178      -3.07416187713376
H        -1.55046580396752       0.04222456742455      -2.49268203719649
H        -0.31252043938626       1.29134648192416      -2.31639452471080
H         2.62491791058358       0.31609357796512       0.09763012033108
H         1.62200520497088       1.24073667696659      -1.02077576411534
H         0.10860908291606      -0.29533776958666       1.97085606584588
H        -0.22803968684524      -1.82271247908968       1.13857265819402
H         0.42271302678565       2.25225385167494       0.99809082864868
H         1.57507510138597       1.39998756196229       2.03926517564831
H         2.53222281461067      -0.81967527995456       2.01245673228969
H         2.27056989544481      -2.27101976528359       1.04074939251581
H         3.46946999912321       2.54204349258971       0.85364782797953
H         2.30170592663981       3.42950518778490      -0.13358995149828
H         2.36004248366027       3.69517282501535       1.61793572757383
H         1.13006437487570      -1.78013567266682       3.83914423061626
H         0.86253125472195      -3.23750604849853       2.86489094290386
H         2.49312660614034      -2.83411589657117       3.42565232638668
N         4.14336315633482      -0.90587612903617      -1.01315188030966
S         5.25482976640802      -1.52364015426890      -0.02590172361566
S         4.49533353040146       0.43696669518077      -1.82216360969396
C         5.55915924721258      -0.30723533960652       1.37408660254189
C         5.83789528725647       0.09456546947794      -3.08883037975890
O         4.60018538876264      -2.62788779862729       0.63342324928063
O         6.54226210111219      -1.73557504400520      -0.63002194951497
O         4.99323296447571       1.51206091268775      -0.99392172297956
O         3.31441126839418       0.71115836858606      -2.62005199753105
F         5.83442195445115      -0.98602754271992       2.47603306435046
F         4.44372624359711       0.39992645196189       1.60027989733591
F         6.54695559963983       0.51962986033424       1.11810013316169
F         5.65366349256376       0.90919009845626      -4.11522561932912
F         5.74525280837381      -1.15353786967066      -3.51137974771638
F         7.03048885455031       0.30734688121883      -2.57781391642912
