34
C10H18F3NO2 optimized with ForceField in AMS.
N         0.01524940741121       0.01390015326457      -0.00774175547081
C         0.92981509230237      -0.83466710128467      -0.83221666784527
C         0.91968685541567       0.88431567756861       0.80379239579152
C         2.34326482648762      -0.30551265384491      -0.67683337580350
C         2.33378403422492       0.35366529725502       0.67367677600101
C        -0.80435191316844      -0.84618665564551       0.90682060520219
C        -0.83738585675878       0.85486541297519      -0.90912956626678
C        -1.80453839628732      -1.77085352144566       0.18755094330090
C        -1.84447822485756       1.75812655926897      -0.17334223049314
H         0.65332429552023      -0.86021860065413      -1.91105605338732
H         0.94526135433280      -1.89498692838404      -0.49012500375512
H         0.63212549213796       0.93812528838891       1.87735263931628
H         0.93615137273028       1.93551089900266       0.43415498797574
H         2.55275622684712       0.45001194282351      -1.46611127386701
H         3.09953625354675      -1.11923242780115      -0.72770814743180
H         2.52903966227101      -0.40156360515455       1.46684067420804
H         3.08964586918371       1.16692360472730       0.73574384874598
H        -0.13412105873278      -1.48385854243860       1.52825246212117
H        -1.37371054098095      -0.22283121053800       1.63100124879361
H        -0.19131318798723       1.50673300651305      -1.54140285625637
H        -1.40369299256953       0.21871885541381      -1.62438176531380
H        -2.24564645811786      -2.47410724037944       0.92473421089651
H        -2.63862008432412      -1.19066173172352      -0.25657702812458
H        -1.31541051031287      -2.36917078170553      -0.60743973837456
H        -2.30528745277598       2.45839038958989      -0.90125048995110
H        -2.66324662114965       1.16047098930646       0.27619187355974
H        -1.35553296572077       2.35903827568472       0.61997086478997
C        -0.11853855599116       2.54239036943801       5.17603594270384
O        -1.14910453542843       2.61960968605783       4.52622437913684
O         0.25684923222492       3.50267599514877       5.82913755699539
C         0.68694650811331       1.27801953748424       5.17720182159132
F         1.95223706621488       1.53760064962736       4.68343101242416
F         0.08177006967558       0.31541912448293       4.38815427572983
F         0.79109744002311       0.79902104447792       6.47009534835714
