35
C9H17F6N2P optimized with ADF in AMS.
N         1.00016709397220      -1.16604516707975       0.44637162159288
N        -0.59687355868601       0.05320556626365       1.26661400635677
C         2.32282296832947      -1.79486380252354       0.28093148535306
C         2.96250596905383      -1.42967266331467      -1.05383924383590
C         3.16985329758793       0.07152341508257      -1.23879830792411
C         0.65309718309898      -0.37866498186516       1.47158463870649
C        -0.05369114233460      -1.23084764405153      -0.44416469344944
C        -1.05556698367931      -0.46008674147725       0.06940434487269
C        -1.30329222632175       1.02010449653487       2.12628336413179
C         3.85884904306283       0.39996382666112      -2.55897977057698
C        -1.39573289817037       2.38786022700111       1.47263591400384
H         2.93632031236067      -1.42228814879731       1.11272861977363
H         2.19010909749910      -2.88359264913102       0.38479715465694
H         2.36560913071646      -1.84502446516299      -1.88710638336835
H         3.93350312121958      -1.95597868350047      -1.08847752812501
H         2.19918474767017       0.59114165509738      -1.18702459765044
H         3.75658271414977       0.46838391327418      -0.39496386130781
H         1.29787841621691      -0.07811443857403       2.29137673340866
H        -0.00230536639754      -1.80989631775514      -1.35608468356303
H        -2.29263734168891       0.58991003744323       2.34796225739616
H        -0.72528714249974       1.08086848558166       3.05749378311336
H        -2.04396298058273      -0.23768809641188      -0.31203490473149
H         3.26977823511678       0.04578299610750      -3.42115748109402
H         4.85395573490079      -0.06994481766928      -2.61645682482733
H         3.99476406273627       1.48580142202576      -2.66171111101756
H        -0.38738327908131       2.77543602943639       1.27244323281598
H        -1.90600394447097       3.07643106505613       2.16191413265335
H        -1.96894863104930       2.35331592967266       0.53427005536465
P         2.82439806874754       2.33899137015045       2.23268473532394
F         3.29681698767531       0.71761657068459       2.17193827679619
F         1.81997448419610       2.04446686084816       0.91767890977948
F         1.55541523785670       1.86121057475910       3.23651339137772
F         2.28854159254224       3.88350077049822       2.28446097266394
F         3.77605162175761       2.56435137381071       3.53884112751216
F         4.04053921489528       2.72565910042457       1.20717276651779
