40
C12H25NO2 optimized with ADF in AMS.
N         0.38131759069972       0.38227984038380       0.23796922294204
C        -0.11283647156251       0.84528235469511      -1.12800991531167
C         0.79454331399572      -1.07674460600310       0.13425272638030
C         1.59275487288028       1.25336040794941       0.55535603151283
C        -1.22906570593972      -0.02436449554908      -1.67851642126554
C        -0.32572931814650      -1.96536691742522      -0.38314685926645
C        -0.79264043079381      -1.48719889522789      -1.75812315752829
C        -0.66659925140340       0.57402481585806       1.27938549580512
C         2.42295409483859       0.82138363038845       1.76192668980404
C         3.68994060416385       0.04568232851008       1.38859296485056
C         4.54144699825608      -0.27483099796841       2.61244371603426
H         0.79125806532984       0.81632053908514      -1.76844946318983
H        -0.42100639242939       1.89479148648078      -0.99942757866122
H         1.13546184695489      -1.38047756732223       1.13359237455695
H         1.62610727926951      -1.09406819007422      -0.61318759597018
H         1.17412248002441       2.26355182305883       0.68895121300465
H         2.19900339940016       1.23391880548225      -0.37929128042937
H        -1.46927681829678       0.36521481896736      -2.68198719590421
H        -2.15252240001161       0.07671809237748      -1.07900708352465
H        -1.17336007672902      -2.02951785279862       0.32449710286879
H         0.09619603333315      -2.98151395149111      -0.45771888589953
H        -1.61592846738252      -2.11669253222086      -2.13252836087427
H         0.05994149655056      -1.57153251710866      -2.45525902198759
H        -1.53852749091880      -0.04672561378080       1.05334642461069
H        -0.25405363315054       0.28546048750689       2.25335138194375
H        -0.95588043641184       1.63290507549897       1.29477317264150
H         1.82823410561235       0.24439215812570       2.49373388572246
H         2.72326098272488       1.73799750261878       2.30087473838626
H         4.26453275034475       0.65106148669430       0.66653689481699
H         3.42839621908427      -0.87938538185383       0.85083932374618
H         3.99296137636711      -0.91184247556699       3.32622154750156
H         4.83256176290877       0.64597317698242       3.14358740303443
H         5.46396953095763      -0.80460682661996       2.33020056702884
C         4.22643847364424      -0.23772735727107      -3.63403165426324
C         3.12120803378089      -0.13089138226375      -2.57744685743909
O         2.58105154534372      -1.21745144215774      -2.20600565420387
O         2.84952532395178       1.03705842360216      -2.14828824993301
H         4.00310540267759      -1.04481651353496      -4.34601472914455
H         4.36707446258625       0.71618791560018      -4.16032866150843
H         5.17271962749543      -0.49583988892765      -3.13148400378722
