40
C10H22F6NP optimized with DFTB in AMS.
N        -0.71438312653987       0.17085819466959       0.37561095768275
C        -1.77074840438942      -0.06395459379675      -0.68365580048120
C        -1.47595888578339       0.41027660514728       1.65468083110904
C        -3.11260203659876      -0.19649408354256       0.03690358768655
C        -2.75928065821280      -0.38799185507270       1.50823682765922
C         0.10127228861332       1.37907943899054       0.01301634717276
C         0.13649836805296      -1.05167319913890       0.55036433133643
C         1.13975585402242       1.76814538292937       1.06203530286695
C         1.05157163437415      -1.36964950673406      -0.63300333881569
C         1.70667973375075       3.14441500766012       0.71395920701971
C         1.66810523036779      -2.75549066065567      -0.44428289522645
H        -1.77038279104873       0.78624417421008      -1.36502088746829
H        -1.51531666971963      -0.96666144194481      -1.23937464189129
H        -0.86713546205964       0.11183646255538       2.50759572419778
H        -1.69913556335349       1.47487457381437       1.71124879107702
H        -3.68635909542582       0.72473376302362      -0.08450816470206
H        -3.69082614661980      -1.03102370580986      -0.36216974739496
H        -2.60067253802400      -1.44346449009293       1.74802619685421
H        -3.53520489112772       0.01426672290393       2.15977049079827
H         0.57746493115275       1.17965100004200      -0.94943649260019
H        -0.60832836844121       2.19652755840695      -0.11455756736782
H         0.74170255322655      -0.90368833583355       1.44800874880134
H        -0.54663255314629      -1.88594810777080       0.73115982827293
H         0.67423565086326       1.81876639870271       2.04900784002018
H         1.94854181832017       1.03170087687497       1.10030811535290
H         1.85285833369348      -0.62934584284184      -0.69797530678293
H         0.49361944282945      -1.34801872501588      -1.57251670998330
H         2.15397913627122       3.13622951144802      -0.28065718185780
H         0.91206709685977       3.88983264797486       0.73760666748060
H         2.47036696722155       3.42175994643676       1.43976413433800
H         2.24315081096711      -2.79564572356187       0.48133522901850
H         0.89124805239314      -3.51986555287841      -0.40670761554835
H         2.33403966504779      -2.97637831091317      -1.27766636360042
P        -3.00244238863008       3.81168180097162       0.65120771597102
F        -1.48641982689453       3.53913407968522       1.33594992406335
F        -3.36867862110370       4.83299992659837       1.85681201338379
F        -2.36405068072053       5.00621730709478      -0.25242026324207
F        -4.46298807827666       3.99178464763690      -0.03835479496205
F        -2.58269880290632       2.69981601168701      -0.55622590178369
F        -3.57431153290525       2.52206715223931       1.54863982144526
