50
C12H28F2N2O4S2 optimized with ForceField in AMS.
N         0.00068946619417      -0.00098977564181       0.00191967097048
C        -0.84399139915559       0.64151284126035       1.07044582608764
C        -0.85148906510564      -0.64571992706689      -1.05941557248749
C         0.85327209004251      -1.06465041508991       0.64202563167563
C         0.84487152527469       1.06504807616956      -0.64659304801943
C        -1.90433534654594      -0.27316869021083       1.73699693912348
C        -1.93836496094393       0.25846530458804      -1.69571769192198
C         1.91878361555219      -1.72032766033016      -0.27366006472928
C         1.91802684577066       1.72355028308889       0.25807042775322
C        -2.70680270165994       0.50136622296590       2.78008807919695
C        -2.71050312552880      -0.49933291284356      -2.77317869906064
C         2.71925403863222      -2.76948181731925       0.49496252126638
C         2.71053243141489       2.77152608712564      -0.52021897618856
H        -1.35938108290818       1.54312162075581       0.67028680867388
H        -0.19857688297476       1.01332521351684       1.89507045899107
H        -1.34742754362667      -1.55936341468345      -0.66207392252415
H        -0.21286229362658      -0.99920567432525      -1.89766178718307
H         0.21368746509196      -1.89488744360916       1.01169780199995
H         1.36523069454706      -0.66395014188727       1.54525807113634
H         0.20102201853620       1.89430085262315      -1.01008161800852
H         1.34919845608695       0.66605078237973      -1.55499101737890
H        -2.62135111517624      -0.67542133780969       0.99427168228387
H        -1.42079803267499      -1.12462474805310       2.25650751752978
H        -2.67089404404648       0.60615727467055      -0.94042998863933
H        -1.48340462373086       1.14634587790548      -2.17466925932215
H         1.43999626702703      -2.23166155417591      -1.13279907327436
H         2.63650757088507      -0.97123568112224      -0.66315579955885
H         1.44693712795128       2.23727438426407       1.11996830040753
H         2.63975686599792       0.97619165073969       0.64344619577318
H        -3.46159978689628      -0.16870270826989       3.24336031123790
H        -2.03528416700426       0.88273709469956       3.57881015214036
H        -3.23501396785633       1.35590008298925       2.30599248048132
H        -3.47177021778064       0.16999272318662      -3.22672961597058
H        -2.02148697129507      -0.84333547104500      -3.57408900171716
H        -3.22785400990082      -1.37744755963964      -2.33126529997616
H         3.47391607463331      -3.22973298440330      -0.17728564045405
H         3.24730790061427      -2.30109636898948       1.35275316478201
H         2.04673567065797      -3.56981084016603       0.87128046535658
H         3.46900253326393       3.23568242266051       0.14508777326672
H         3.23310427623263       2.30118133231775      -1.38024402251175
H         2.03349482811995       3.56902773161300      -0.89443324492468
N         1.20627826960921       1.04433924759305      -5.81804591849500
S         0.57676871862040       2.41000774837729      -5.17398842558929
S         0.58255527344320       0.38326129417582      -7.17851574410495
F        -0.93668731943243       2.07770248509313      -4.54175037659313
F         0.98579887853059       1.33793474144416      -8.49401410398278
O         1.47726084606820       2.91522518775040      -4.08273111617221
O         0.43420102275097       3.45897695476645      -6.24059163141268
O        -0.91466179183436       0.30929182354295      -7.07258241550680
O         1.14557607575537      -0.99588993248184      -7.37231351612633
