56
C16H19F18N2P optimized with ADF in AMS.
N         0.72237895547756      -1.48458680049218      -2.14803569160300
N        -1.22506698488429      -1.05206618400934      -1.29811503950872
C         2.03189592869277      -2.11385935771671      -2.37863407317653
C         3.13726473474251      -1.42493955192138      -1.58372507109164
C        -2.42367812179034      -1.15268811748567      -0.44980241981615
C        -0.17529790218671      -1.88140854119494      -1.23566626981851
C         2.95529240245491      -1.50911327082778      -0.06954019860987
C         0.24031756202174      -0.36604172510967      -2.79743327458136
C        -0.98631321535018      -0.09462322566004      -2.26255371933886
C        -2.28721808619826      -0.34986346103496       0.84085791669694
C         4.09567093323785      -0.83117252956778       0.68386991748450
C        -1.18222110222018      -0.85873522824802       1.76112007799891
H         1.92969723819995      -3.16950121206163      -2.09295639535434
H         2.21921409039938      -2.06769202898727      -3.46182598911357
H         3.21531318652529      -0.36754294560418      -1.89876293945945
H         4.08685567404292      -1.91034656046485      -1.87177470926358
H        -2.56702308172135      -2.21925969635544      -0.23929329884963
H        -3.27015499935698      -0.80452027686018      -1.06001946276451
H        -0.09401953672722      -2.74239446469549      -0.57871028544945
H         2.00090374101582      -1.03307610204271       0.21754437601759
H         2.88185743708576      -2.56756560867372       0.23221850138484
H         0.79376239179980       0.11535313378867      -3.59474131219948
H        -1.71538207179298       0.66922536191964      -2.50351293751327
H        -2.13526081239324       0.71758876828067       0.59810534272088
H        -3.26272164367666      -0.42386462446814       1.35187640451571
H         4.16029250728965       0.23858892707076       0.42877306680612
H         5.06188974377850      -1.29714169851463       0.43547184568177
H         3.95213265345367      -0.91395624366704       1.77150043769015
H        -0.18767493452436      -0.75178794563808       1.30005389973210
H        -1.33009109420896      -1.92068595706579       2.00918895030070
H        -1.16820654050870      -0.28403463332678       2.69917868574022
P        -1.08071760079986      -5.72859584730891       0.31205434937535
F        -0.68494478923477      -5.98259448666139       1.90306979319122
F        -1.05712572090831      -4.03907751947510       0.59595319401571
F        -1.09805563635527      -7.34262466666396      -0.04405122499526
C         0.87483811684828      -5.71095342244231      -0.06016421931623
C        -2.96181278905662      -5.85880515525534       0.94175000624651
C        -1.54401958866945      -5.24618977786961      -1.58909583164329
C         1.84488386592681      -6.30997065733307       1.00922381818535
C        -3.53194705280027      -4.72614321879120       1.84625013295866
C        -1.89998709865075      -6.34461584441163      -2.63457524752140
F         1.37020931932930      -4.41105582286770      -0.24006019487618
F         1.15654152776496      -6.39492633745110      -1.21576638424191
F        -3.06221393463703      -7.00116073053207       1.70039835245028
F        -3.88300457698284      -5.99078683941140      -0.07422987525320
F        -0.48516229460579      -4.55844470958987      -2.18271664229431
F        -2.59353336607158      -4.34539278739091      -1.60011402016535
F         3.10544894934758      -6.35076118110228       0.47439469217350
F         1.50490790920195      -7.56515913170061       1.35670997028950
F         1.91457694104442      -5.53582135532649       2.11770267547725
F        -4.73924099978412      -5.10534390842409       2.34418764601900
F        -2.72708802795724      -4.42864041067609       2.88784573873166
F        -3.74400013619673      -3.57972730649761       1.13202106557709
F        -2.26516593985122      -5.73370098609534      -3.80448801132290
F        -2.92255628444676      -7.12528608092824      -2.24119059347900
F        -0.83026772573234      -7.12547625185898      -2.89938927204058
