41
C13H21F3N2O2 optimized with ADF in AMS.
N        -0.78382707140196      -0.54746242115241       1.00927150964578
N         1.25641319059430      -0.93705134692512       0.41008627405200
C        -1.94553915249912       0.08701354162306       1.65009214737485
C         2.71153896401745      -0.77302328692284       0.25299116541053
C        -2.92911328785494       0.62261359166547       0.61481072389467
C         3.03610352716914      -0.08098327119734      -1.07100632001721
C         0.48981882304789      -0.17090585350934       1.20383168397027
C        -0.82939131464422      -1.56596841111727       0.07495230228435
C         0.45853607478520      -1.80810294452328      -0.30509406537239
C        -2.31782084224983       1.64382254960020      -0.34224634938991
C         2.73089252302839       1.42086568711728      -1.05805251831837
C        -3.32207403599465       2.14108619603063      -1.37806781444995
C         3.79423251710856       2.23055240225479      -0.31959318541143
H        -2.42057213167669      -0.65949814444712       2.30616940628556
H        -1.54400946839399       0.89693219224729       2.27485393752513
H         3.04592715101325      -0.17335532115617       1.11354690854109
H         3.16047330684809      -1.77651574605607       0.31420109296435
H        -3.76638004075820       1.07864889068789       1.17218407439842
H        -3.36566980486650      -0.21779451265050       0.04422949385171
H         2.48498003521339      -0.58729881891265      -1.88406886408269
H         4.11003035140763      -0.23721813467396      -1.27607571475665
H         0.92876992106250       0.63015508734889       1.88175043851026
H        -1.75791785385072      -2.02730898456184      -0.23585648935576
H         0.86699894449990      -2.52153982920374      -1.01064892785220
H        -1.92323314219740       2.49257816278935       0.23915241522770
H        -1.45136350931805       1.19319083314059      -0.85861088191875
H         2.64676732291663       1.77208765192065      -2.10102778367735
H         1.74289042611467       1.59741139312424      -0.59510808478707
H        -4.18761709218431       2.62025867869909      -0.89299525060180
H        -3.70113174037561       1.31246963582898      -1.99833121794700
H        -2.86068447418533       2.88116556834054      -2.04824405288074
H         4.77623851005746       2.10907029698397      -0.80670452385208
H         3.87738003423621       1.93370939374341       0.73659074129441
H         3.54517583321377       3.30168476004100      -0.31522763826867
C         1.99877654823238       2.78649059586081       2.70744725660750
O         2.09093153644119       1.52496505625600       2.54739027663146
O         2.86373035190633       3.66176652931672       2.75727699618901
C         0.51208528727677       3.28340374247416       2.80198606056752
F        -0.28898099169214       2.47392973860355       3.58725628401775
F        -0.06947693729461       3.25970778405377       1.54010691648267
F         0.37474881134716       4.54158980715733       3.27429848041304
