31
C9H19NO2 optimized with DFTB in AMS.
N         0.37252165346470      -0.10226367647196      -0.16624085565415
C        -0.32853131253655      -1.40633829770453      -0.40069426732962
C        -0.74149153312294       0.89556059392701      -0.20148375535499
C        -1.65220507061605      -1.29330304081859       0.34544062278572
C        -1.91123278603297       0.21479141677888       0.50560351682921
C         1.03048984720533      -0.06557969538388       1.18615342299964
C         1.36202142711751       0.17502789361698      -1.23731106695972
C         2.30349042931029      -0.89184061661143       1.28651209834042
H         0.31239309024118      -2.23297840987974      -0.07130861734096
H        -0.47233548032300      -1.50324124029672      -1.47811715584070
H        -0.97864556840225       1.08367936266981      -1.25109312990346
H        -0.42369127310633       1.82743283626989       0.26762040220796
H        -1.59794307212483      -1.77954116088504       1.32175775856991
H        -2.44679648416756      -1.77500808496028      -0.22666666743109
H        -2.85420126958344       0.51527102563954       0.04572331002619
H        -1.94327094514469       0.49662762305680       1.56036029365702
H         1.24770449437808       0.98479400149808       1.40443338713394
H         0.29136524813762      -0.42306605173199       1.90632875272258
H         2.06605441479361      -0.65392914072737      -1.28163549285792
H         0.84060917280004       0.22114981607697      -2.19016579786749
H         1.86293787050416       1.11865987815892      -1.02630415947346
H         2.56417113324482      -0.97368133656751       2.34143121162748
H         2.16807978907522      -1.89665798169219       0.88021188250051
H         3.12797564915666      -0.40968604800786       0.76397041782643
C         2.63403855409342      -4.55059743234364      -2.30295175113973
C         1.91114145115233      -3.38286518636274      -1.59212872962784
O         1.78800025626334      -3.47898714844785      -0.35014866972855
O         1.51773434323731      -2.43764523406266      -2.30866240737481
H         3.69998764835274      -4.47761905194344      -2.08824610905886
H         2.26537839396204      -5.49877722706519      -1.91531083940681
H         2.47693039907021      -4.49598263792825      -3.37832683547685
