30
C8H20ClN optimized with DFTB in AMS.
N         0.05417546719156      -0.02129032264923      -0.06586416591776
C        -0.69062700071938      -0.36666176006801       1.20077200318632
C        -0.88783962809340       0.30964493509494      -1.19068317139183
C         0.88079346054164      -1.21623270344449      -0.47813688194106
C         0.91800873508822       1.18478797966347       0.20366927441970
C        -1.70611878493472      -1.48866276528448       1.06229804872944
C        -1.91013433427236       1.39719822137565      -0.89119413045760
C         1.88253943158195      -0.95765998266791      -1.59160362253556
C         2.01267401166628       0.99232586125640       1.24159416257122
H         0.06763759861879      -0.68149936289902       1.92761181623072
H        -1.17394518418424       0.54773795619252       1.55140494306252
H        -0.27415464790043       0.61734312190904      -2.04036123170718
H        -1.40442657145677      -0.61422042760790      -1.45990046452991
H         1.39749430785943      -1.56986786283182       0.42495853797220
H         0.17539942451320      -1.98593982218954      -0.79759767052522
H         1.35424438260728       1.48253905571083      -0.75335334615569
H         0.24741239355786       1.98149105437044       0.53425933468783
H        -2.16229323531044      -1.62646372303137       2.04264840138486
H        -2.49633931774019      -1.26237140983943       0.34732307023970
H        -1.22628487418529      -2.42496260835791       0.78393190075154
H        -2.51682161072009       1.53089701947013      -1.78702676239057
H        -2.57115979488144       1.12024659412197      -0.07267553092068
H        -1.43648382689610       2.34895449934178      -0.65798413222906
H         2.33971135478127      -1.91633500478962      -1.83681001866797
H         1.41570955012647      -0.56355248895649      -2.49421585622992
H         2.67539038455995      -0.28165867554483      -1.27721226921504
H         2.57227609190321       1.92643664934224       1.29741735094607
H         1.60399257652387       0.77359665125944       2.22484174081551
H         2.69749622455575       0.19224404627324       0.97466956097340
Cl        1.76505673761813      -1.95431400222004       2.51726869604399
