28
C6H14F6NP optimized with ForceField in AMS.
N         0.56010435714157       0.00133438919621      -0.00213294806124
C        -0.32761450275732       1.07456705667753      -0.52770749326163
C        -0.33494600418291      -1.06913123727825       0.51700177710753
C        -1.74612835643403       0.75414383875015      -0.09344850217088
C        -1.74972895250722      -0.74291397117257       0.07591537318481
C         1.41809981428567       0.52814117969306       1.08546568658982
C         1.42567450614361      -0.52888472499379      -1.08232205653212
H        -0.31551119770235       1.11817266180259      -1.64188380406897
H        -0.04341409240409       2.09103752450133      -0.16996184927600
H        -0.32913168287495      -1.11428708373342       1.63126574223453
H        -0.05295285813751      -2.08629926133724       0.15955206891791
H        -2.49391087956580       1.08201733269535      -0.84813016164621
H        -1.95946830787550       1.24294493115768       0.88299805298904
H        -2.50220130643720      -1.06790071120060       0.82724888314582
H        -1.96033849345948      -1.23122407398792      -0.90133678019159
H         2.10189662755170       1.31945196302701       0.70440010900387
H         0.80097678393963       0.97455746164503       1.89764185265928
H         2.03626180824696      -0.28379679104790       1.52942768729839
H         0.81351046308199      -0.95672696276939      -1.90814920785355
H         2.06753413113583       0.27486244922929      -1.50763878782114
H         2.08768592785192      -1.33632825286684      -0.69888519895574
P         5.84453296851514      -0.45971934480583       0.31728055452726
F         5.96053108153784      -1.58263064920234       1.61180629992846
F         7.13250214272598      -1.20987016451272      -0.53615048098274
F         4.71913079199401      -1.53365891332638      -0.40943858951009
F         5.54008598244925       0.63207191726552      -0.97336742123306
F         4.66529789317293       0.38655162453101       1.23367529853619
F         7.05917458846434       0.54881409656341       0.99356801304206
