46
C12H26F6NP optimized with ForceField in AMS.
N        -1.89459172285242       0.13900097436562      -0.05461421392608
C        -2.10886240321348      -1.07301924292270      -0.90308938901011
C        -3.01934320185785       0.12538544867000       0.93139519879159
C        -0.58993197124124       0.03616945317745       0.67633227264514
C        -3.48803547085006      -1.62619718884243      -0.60266074762314
C        -3.73728859290553      -1.20602769820156       0.81815590105972
C        -1.97341650792613       1.36777450601286      -0.90941835898770
C         0.66131767097986       0.05516606650121      -0.23495966606529
C        -1.71739758223132       2.68591018012130      -0.15640469167588
C         1.93048316403391      -0.20163211205981       0.58598773738043
C         3.18056981927756      -0.19742745674834      -0.30264566367329
C         4.44925898721485      -0.37038747291414       0.54060231155474
C         5.69826730224269      -0.39791950665941      -0.33590244929695
H        -1.38079011891996      -1.88403337427957      -0.66995878493701
H        -2.01359802424936      -0.86975154614710      -1.99441339445174
H        -3.77447766260447       0.91802657781791       0.72186059254309
H        -2.68615185061132       0.28397633660415       1.98285999400885
H        -0.57468800690122      -0.90401948119301       1.27609421928751
H        -0.49354736112255       0.86072962963019       1.41755089115256
H        -3.52633314416788      -2.73175101789168      -0.71358091718155
H        -4.23910578525352      -1.15419166794584      -1.27443982726842
H        -4.82457045324406      -1.11258168050692       1.03056108169962
H        -3.28018346083140      -1.94262740504197       1.51586593008962
H        -1.25332324197995       1.30952947086708      -1.75518623811769
H        -2.97929979374280       1.43410796142808      -1.38495873972891
H         0.58046209341219      -0.71688169253525      -1.02851922539861
H         0.76224155317752       1.04646760601641      -0.72381032599088
H        -1.98872985214067       3.53963853790728      -0.81224457023181
H        -2.32340646323672       2.75510364466688       0.76985032238268
H        -0.64433265098248       2.79406441627282       0.10231604299436
H         1.84907987246799      -1.18718302760227       1.09567952036943
H         2.02609564662636       0.58961809277974       1.36069415443277
H         3.23779953246385       0.76459654652622      -0.85845238890231
H         3.10832681067524      -1.02833018838756      -1.03902559460415
H         4.53612993328131       0.47173279794108       1.26175861016683
H         4.39282936156260      -1.32097894057840       1.11440251182349
H         5.78847338340730       0.54841265099948      -0.91053396211610
H         6.59755335513723      -0.51108063872471       0.30556230593930
H         5.65542049649531      -1.25471422978456      -1.04164908147133
P         1.75754390632930       4.02641465417729       3.16206063453048
F         2.54915653284646       2.50325182084278       3.13227991422241
F         3.27297632265370       4.71561784465668       3.58403204534030
F         2.05845836791781       4.24114032460426       1.48486026582892
F         1.11010001180787       5.61142369057031       3.29755543787626
F         0.24202932407782       3.36202347203726       2.70337226903177
F         1.32347967387766       3.72459650027286       4.79598288570707
