37
C11H24ClN optimized with DFTB in AMS.
N         1.95135242380030       0.26189157960874      -0.06766573472488
C         2.22657808638484      -1.11353152950850       0.45942758197729
C         3.03328570205978       0.47833065840063      -1.07922305039969
C         0.60978418251333       0.35649357917170      -0.72957391600385
C         3.74455328784329      -1.19407395017400       0.55116819338375
C         4.27346149998834      -0.20168367810176      -0.49805954917548
C         2.07278393958316       1.27481130065721       1.01811157146337
C        -0.56750679773572       0.12090579138371       0.21364732213725
C        -1.87600942172021       0.12997349819287      -0.58196994045267
C        -3.07123542334377      -0.08504918161649       0.35177227773041
C        -4.39075000457629      -0.08555452468220      -0.42548759482667
C        -5.58260567004348      -0.29991074776287       0.50601118101622
H         1.83341215348183      -1.83065326392179      -0.26480921953138
H         1.72211615455148      -1.23234176465462       1.42822524186982
H         3.15960226117258       1.54787933746306      -1.25193303137432
H         2.72506754002724      -0.00201114738198      -2.01100511500974
H         0.60009927860325      -0.38570552230218      -1.53374014309839
H         0.54908332316582       1.35315985763206      -1.17770467906424
H         4.08376948262972      -2.21122221560075       0.34946210558562
H         4.08308602653502      -0.91467615645863       1.55084630688860
H         4.94125307037487       0.53088893302345      -0.04042370215055
H         4.82362126603099      -0.71165949015104      -1.29113832755188
H         1.45315828045259       0.95646182613426       1.86271950553559
H         3.11116653079883       1.32881182437093       1.33633365725461
H         1.75014599019925       2.24180614441744       0.63665497766439
H        -0.45561675991501      -0.83727012620636       0.72425081855340
H        -0.60190718559799       0.89886572645463       0.97862396397767
H        -1.85193744369912      -0.66334916755100      -1.33789277798598
H        -1.98348318038661       1.08726466568579      -1.10519298602182
H        -3.08956341932466       0.70919560160110       1.10501204170344
H        -2.95352241132061      -1.03893718283494       0.87565540256238
H        -4.50588217319278       0.86936856189508      -0.95052705544558
H        -4.37016009170403      -0.88057658467415      -1.17926003535185
H        -5.63152727901768       0.49426923936449       1.25224618714321
H        -6.51076105145577      -0.29698602563482      -0.06635752957345
H        -5.49561804559212      -1.25648067839524       1.02300494235909
Cl        0.61356042982931      -0.60087039594383       3.16035976073631
