42
C10H18F6N2O4S2 optimized with ADF in AMS.
N         2.00780167662451       0.15091979554067       0.18702714226069
C         2.26479576087260       1.49426149600953      -0.48463744231132
C         1.64636556086055      -0.87635656198741      -0.87462700266592
C         1.10513170576734       1.96064751361822      -1.34607520193447
C         0.48849639674190      -0.43404825900692      -1.75564525155335
C         3.31271179400458      -0.24472235324844       0.87879368492667
C         0.76447996809775       0.91845039499153      -2.40991618496697
C         0.91663804597669       0.27206817097301       1.19740199276850
C         3.35636705949858      -1.65049801505262       1.43516200185418
H         3.17335359218278       1.35341434697591      -1.08749667429261
H         2.50542892101753       2.20198246496151       0.32312023579488
H         1.41421638474647      -1.80959076664066      -0.34325151847699
H         2.56285604541175      -1.01811419412837      -1.46759862266065
H         1.42179120037371       2.90624274480737      -1.81646889650481
H         0.21852052406997       2.20177299078980      -0.73343564015247
H        -0.45735803822290      -0.40607176062775      -1.18638360643800
H         0.36314409581104      -1.21574795208178      -2.52320995976701
H         4.09923867947587      -0.10454571525668       0.12663093438787
H         3.45697957091508       0.51080477458616       1.66691092566580
H        -0.10409397039629       1.24198115909511      -3.00465233468013
H         1.61676617452696       0.81838668467214      -3.10204720541364
H        -0.01306443174024       0.57413349944602       0.70679557064842
H         0.77345845093358      -0.69921069991307       1.68476088495108
H         1.20826711118487       1.02722035733577       1.93868111212299
H         4.31262202123751      -1.74615692665719       1.97236443539479
H         2.55386998223596      -1.87381068071771       2.15343239566877
H         3.36601015271280      -2.40458562505879       0.63657718607434
N         6.72872827791697       0.16081078291021      -2.56641705518668
S         6.72499872872874       1.10383821406602      -1.26232157136022
S         5.51130840581668      -0.77431936542159      -3.01480415461094
C         7.48128478946631      -0.00359214780775       0.07102468193457
C         4.52193371367071       0.32251190476990      -4.18967824825345
O         7.70851911126394       2.15656415191605      -1.43955144531201
O         5.40592992848764       1.43998081685090      -0.70864946302145
O         4.52848548959489      -1.10244820410472      -1.96836432176474
O         6.00212001556841      -1.83384262420611      -3.87675543018885
F         8.76073762767848      -0.31237612196837      -0.21496518501421
F         6.77754444301819      -1.15960943832132       0.21557698239467
F         7.44668325332771       0.65219407690381       1.26211965404790
F         3.39024947813442      -0.33845463081269      -4.57124041289082
F         5.22664612688504       0.63274851187675      -5.29220704048927
F         4.13244069952094       1.48065113392354      -3.58428656418516
