34
C10H22ClN optimized with ForceField in AMS.
N        -0.51940743873810       0.02397345452363       0.00276652741042
C        -1.44610320819478      -0.53362355097485      -1.03024546127309
C        -1.41410616681771       0.62201269893978       1.04072883054537
C        -2.84723473285042      -0.03718701754613      -0.72871994870371
C        -2.83398678114006       0.16884571401440       0.75938344472122
C         0.33532673410214       1.08635719130623      -0.62000747038404
C         0.29007080790998      -1.07612053004478       0.62065726115154
C         1.35525809690423       1.74034145882342       0.34190532331791
C         1.27120431535283      -1.77630563506924      -0.34930315393689
C         2.08104504358281       2.89776805394149      -0.33990475880131
C         1.93340850018551      -2.97908080682168       0.31783182153802
H        -1.16264049930776      -0.25599327538880      -2.07154090068147
H        -1.48786401183077      -1.64684633690340      -1.00146523534453
H        -1.12725738804427       0.34546854176495       2.08133202486761
H        -1.41875679391391       1.73576092999531       1.00047423136632
H        -3.02441191384019       0.93345756992555      -1.24309827632571
H        -3.62518667205175      -0.77038433547106      -1.03484084189544
H        -3.03383527753990      -0.79619714418455       1.27616460218295
H        -3.58489940673966       0.92545934077171       1.07557222333570
H         0.89097549933505       0.67675944946656      -1.49219681191334
H        -0.31782093502390       1.88898425479191      -1.03496758367098
H         0.87031268644533      -0.69300537850501       1.48878185793695
H        -0.39666035756938      -1.84675019633150       1.04165237492966
H         0.85212519491772       2.12838345877065       1.25148345164470
H         2.12079190977196       1.00267608509469       0.65708601826742
H         2.07478510918246      -1.07781617017162      -0.65973266567994
H         0.74652912086456      -2.12822666823278      -1.26124312244137
H         2.63821018154555       2.53169767834368      -1.22858977774727
H         1.35646043006994       3.67754749780098      -0.65715161898284
H         2.80435684134822       3.35480027012661       0.36793879449832
H         2.52972564769164      -2.65248110057337       1.19627603752639
H         1.16709368683596      -3.71285150029632       0.64646101551084
H         2.61124807525165      -3.47828191120512      -0.40549782795498
Cl        5.01137731170502      -5.32326420828136      -0.28290148601443
