44
C10H20F6N2O4S2 optimized with ADF in AMS.
N        -0.40505893634934      -0.49398277340669       0.13245155664081
C        -1.49755100342578      -1.48111387805565       0.54268867107064
C        -0.93110957369140       0.51945721316654      -0.86877316984545
C         0.73738012264625      -1.25916994509087      -0.50629325058181
C         0.06173794126035       0.24064078794951       1.39508348157970
C        -2.17856604369011      -2.22505208501926      -0.58465129932613
C        -2.15370078136425       1.29498612785678      -0.42522781959669
C         1.92305878671565      -0.41389519820266      -0.93617178587485
C         0.95261546124183      -0.56185001194998       2.32057537378970
H        -1.03391321645562      -2.17775928903662       1.25353874354258
H        -2.23005218296189      -0.89732932044604       1.11012802898762
H        -0.09566380857101       1.20395771465634      -1.06780765256290
H        -1.13477705173028      -0.04272449448394      -1.79241472953436
H         1.03619891454426      -2.01847625067917       0.22959512713051
H         0.30790807715248      -1.78121931984854      -1.37183876323521
H         0.56343384235556       1.15508325011657       1.04531837071844
H        -0.85491751386568       0.52030669201923       1.93215171242402
H        -2.94399554800106      -2.85744719775901      -0.10807241315562
H        -2.70031658808104      -1.56051038508803      -1.28786129172505
H        -1.50430764357852      -2.89035224192346      -1.14281748160112
H        -2.39954211862471       2.00896370799028      -1.22631521744568
H        -3.03014598334728       0.65551288327284      -0.26865643464211
H        -1.97780295562248       1.87347258675630       0.49156696031575
H         2.71966735186221      -1.09727840306505      -1.26758533460510
H         1.69008503382515       0.24550854804834      -1.78342408724083
H         2.33249089192465       0.19131766214525      -0.11596071002072
H         1.07749880666234       0.03859966792486       3.23467881328006
H         0.48372217339527      -1.50176613617432       2.64369677468553
H         1.95048916037100      -0.75520632476005       1.90249781889576
N        -3.51019572943440      -2.18491279048658       3.12433559516669
S        -4.89994504230455      -1.40930601313433       3.42149213619175
S        -2.16524471742287      -1.89024967899274       3.95647011994944
C        -4.87298660807230       0.00987957862366       2.17141032285671
C        -2.46008635887805      -2.45135812063920       5.76257825046826
O        -5.99198777443654      -2.23120349449940       2.92751961217221
O        -4.97371406702354      -0.74232714643965       4.71450339407363
O        -1.76504369162016      -0.48258248574734       4.06265871736768
O        -1.16701036946953      -2.84527646354074       3.45681726605633
F        -5.98492512853430       0.76541673080998       2.29595404422080
F        -4.83040170214903      -0.47089605871248       0.88942534662135
F        -3.79065612708748       0.82124146790658       2.33323040092909
F        -1.30596113928124      -2.98584297815299       6.23382114801967
F        -3.42658697384809      -3.39087103630603       5.81917449586900
F        -2.79794518963447      -1.41315219950221       6.54721213376991
