70
C20H30F18NP optimized with DFTB in AMS.
N        -0.09258349329284       1.29406397183101      -0.15332682284492
C        -0.11619508089319       2.07588423485189       1.12293372188097
C        -0.49856919067306       2.30113858619764      -1.18782600267138
C         1.30950923211577       0.82937751928881      -0.45328288293445
C        -1.08231892805648       0.16601519780564      -0.08488763889560
C         0.39084760645637       3.47009603039266       0.75724164500048
C         0.16039141332098       3.60727678617357      -0.75639146122346
C         1.83164145572187      -0.31382059832706       0.40971826204088
C        -1.22347810910995      -0.63167344858572      -1.37847897786409
C         3.26489449369473      -0.63518198877926      -0.04120349663335
C        -2.26364846830434      -1.73929309619850      -1.16640275030745
C         3.79795120803046      -1.88641232837189       0.66288000846609
C        -2.37543787189525      -2.63115288718081      -2.40672854079708
C         5.18968590411523      -2.25012590550798       0.15004007813705
C        -3.42993777083733      -3.71788551263302      -2.21523638583157
H         0.49413031749564       1.57165948135483       1.87158662708848
H        -1.15062788411757       2.11592000920119       1.47119256414863
H        -1.58746374035822       2.38157672173696      -1.16320604805844
H        -0.18018321939897       1.96359024479928      -2.17292974559257
H         1.95703813617147       1.70210894566920      -0.34883636005337
H         1.31787668674620       0.52168883066531      -1.49546927567267
H        -2.04448860052749       0.61502235643754       0.17916639040984
H        -0.77244208950938      -0.48232119965062       0.73781367324497
H         1.44973460754062       3.57580861595340       1.00032224734977
H        -0.16170546760499       4.22610838207647       1.31753923697279
H        -0.49098681713801       4.45098485430556      -0.98882103731800
H         1.10635982502107       3.75488249854566      -1.28060222843394
H         1.21427146414867      -1.20436261932816       0.27463184433627
H         1.82299859615536      -0.04602134580237       1.47055710575453
H        -0.27079423206665      -1.07953176560246      -1.65939423252646
H        -1.54224768772955       0.02048761175322      -2.19517329514410
H         3.91490823232880       0.22016732780337       0.17100485519652
H         3.26784229251277      -0.80078791178322      -1.12329144815355
H        -3.23596938213270      -1.28590259409387      -0.94179000539164
H        -1.97106442574282      -2.34749211798870      -0.30299032515596
H         3.11507495532449      -2.72160240366292       0.47748155765942
H         3.83344155555172      -1.71290719679837       1.74412751265698
H        -1.40513898125336      -3.09384288102586      -2.60226357876674
H        -2.63287441123683      -2.01619615769666      -3.27405628297303
H         5.55398769911307      -3.13919540798559       0.66449877615351
H         5.15585584769420      -2.45655430555070      -0.91991526125074
H         5.89035144991244      -1.43276882558018       0.32643316886205
H        -3.48175101448563      -4.33989731380656      -3.10837707957073
H        -3.17712866563256      -4.35222395781275      -1.36419456968404
H        -4.41269387411790      -3.27667567311460      -2.04056104584489
P         1.17364428732366      -1.95598587634975      -5.33884341397893
F         0.11990239179916      -1.31188906439448      -6.47057075759449
F         2.46367178644801      -1.71804799761724      -6.37069976213024
F        -0.09708842518456      -2.15064952841403      -4.22291026322871
C         1.35115391758959      -0.11217748864869      -4.66070288826363
C         0.72817506753390      -3.69119420841108      -6.12005589032366
C         2.47225833925589      -2.68035584206481      -3.98410074993044
C         0.24914703654774       0.92083522004893      -5.00903550872112
C         1.34463481866862      -4.03863319078535      -7.50155752084496
C         1.99359915121033      -3.31771050797708      -2.64921798040453
F         2.51832409142772       0.46826374384079      -4.96745126063364
F         1.29740571946871      -0.17077049614183      -3.29452401226471
F        -0.60658700592226      -3.74576993099722      -6.26670918330454
F         1.06562696977814      -4.69380902635554      -5.28691586035283
F         3.31355999214420      -1.69003354889390      -3.59845227872209
F         3.23227964963162      -3.60580182195803      -4.59717745456767
F         0.44798129013313       2.03288717474348      -4.25656798672559
F        -0.96441640154548       0.47479746647810      -4.68583009697284
F         0.25218008332261       1.29977682956855      -6.27237577358260
F         0.80549017940748      -5.16684043652136      -7.97215499758598
F         1.11900702226165      -3.07866104783612      -8.39189687146975
F         2.65738266987234      -4.22693408615061      -7.40481009151136
F         1.46207810483059      -2.37812422110677      -1.84279910412226
F         3.02783579077826      -3.84303772518904      -1.98537939354497
F         1.08132511436208      -4.26596327574221      -2.79694502088343
