79
C23H36F18NP optimized with ForceField in AMS.
N        -0.52333853241112       1.78150737190692      -0.19751701816443
C        -1.38381802496841       2.32031394646126      -1.30139986370211
C        -0.20530074522363       2.89933371152988       0.75124424595978
C        -1.20328867527093       0.66664427510672       0.55148421588802
C         0.75571433828761       1.31876663565802      -0.83967769537104
C        -2.66655532687342       3.01626234025963      -0.81615475767308
C        -1.44656436728577       3.64251721694623       1.28648389944569
C        -2.32691697908871       4.14839406803114       0.14776654318317
C        -1.51047764443307      -0.60904870574295      -0.27095609406421
C         1.77884038122962       0.63771656033280       0.10414610329293
C        -2.18969386555055      -1.66673891670050       0.60979758637757
C         3.05482353645271       0.26285374159878      -0.66242795626217
C        -2.48352786065410      -2.94499638403652      -0.18460870649213
C         4.06143445857952      -0.44988557229950       0.24943917867241
C        -3.18588403368968      -3.98712651862825       0.69323082120713
C         5.34166030134968      -0.80400501202218      -0.51612126328961
C        -3.46304636504949      -5.26891474019356      -0.08665108268117
C         6.33342707132009      -1.54258828649899       0.37800482966384
H        -0.81513739470555       3.07447371151376      -1.89499506321688
H        -1.65883052344762       1.52989776478921      -2.03001587701095
H         0.35104602997608       2.52547442014851       1.63742117913868
H         0.44863514251785       3.65555492188872       0.25854024411495
H        -0.59574759344358       0.37434525415342       1.43616717303105
H        -2.16361893405654       1.00817902869839       0.98383213540899
H         0.53823922331657       0.61925891891156      -1.67783200316747
H         1.27110327469798       2.18296542926702      -1.32016925188485
H        -3.19769009020945       3.44335287270620      -1.69446170085095
H        -3.36311905240340       2.29461025922942      -0.34236860430048
H        -2.03627742241620       2.99331169599249       1.96648745056379
H        -1.11067385150667       4.51296953870166       1.89095964430385
H        -3.26444611311305       4.57538935762423       0.56413190858288
H        -1.79464864716328       4.95678618033328      -0.40096004824851
H        -2.19544906097145      -0.37393091529041      -1.11025994753889
H        -0.57825380285916      -1.04855093111381      -0.67969196047621
H         1.35236952106341      -0.29082948139608       0.53567239098209
H         2.06187317137271       1.32006602768737       0.93080388291360
H        -3.14345699318477      -1.25503673782854       1.00816642070286
H        -1.52618595057229      -1.91395098791085       1.46777028968243
H         3.52077083113387       1.18567631958624      -1.07335261920304
H         2.79168713700404      -0.40737330050679      -1.51051429131443
H        -3.13345874546390      -2.69884834833710      -1.05331868895305
H        -1.52792248858115      -3.36797042180209      -0.56616658070824
H         4.31766198653752       0.21200764881816       1.10615936375556
H         3.60054538350747      -1.38110797540338       0.64702745938091
H        -2.54739954448297      -4.23116776229836       1.57029497210835
H        -4.15047049723104      -3.57606409596341       1.06346445449205
H         5.09252916352316      -1.45061819016913      -1.38587857003200
H         5.82106151779669       0.12533288399774      -0.89408891060218
H        -3.97552908644645      -6.00126696872021       0.57226984856074
H        -2.51097134625814      -5.71710050613753      -0.44262391998026
H        -4.11779576286829      -5.05644721811457      -0.95852661445824
H         6.60987445969662      -0.91405476626434       1.25071373720639
H         5.89132148167143      -2.49601300507853       0.73805918282057
H         7.25343067299172      -1.77377614687505      -0.19924713372619
P         9.48840644152924       1.69531907109255       4.83700045092290
F        10.45616682850366       3.11766727781200       4.90788084418712
F        10.34360980836316       0.37998400522422       4.12206424463650
F         8.56065347630090       2.74316923638941       5.83774042420808
C        10.75103060977544       1.21702217453252       6.22995955970123
C         9.42100843554969       2.49208263290621       3.07334425982717
C         7.80720508598521       0.74768647445034       4.94398677895365
C        10.80604841800566       2.12093489304729       7.49186424958688
C         8.69006877012428       1.69857271528464       1.96933557980309
C         7.48977424418241       0.02822071634178       6.26930798560678
F        12.03352216941726       1.21875119314043       5.69477785952257
F        10.50263621493936      -0.07165312656750       6.65810176784791
F        10.71562930512881       2.68857041784511       2.60046657748676
F         8.79877804698028       3.72963795797813       3.16375262509148
F         7.78984994018557      -0.23483950718263       3.97060209870377
F         6.75931820617865       1.61639054813536       4.67043054539501
F        11.65403254796183       1.53820480997203       8.41731842465579
F         9.57260370327585       2.26540513638004       8.08961580694974
F        11.31056201797302       3.37490418531888       7.19750121952251
F         8.89564107367858       2.33383443228654       0.75672051557417
F         9.18299461436486       0.41190744450390       1.85786143220887
F         7.32721108668009       1.66302271201632       2.18829467695838
F         8.27590449380384      -1.09875199606616       6.41650931423205
F         6.17044172737941      -0.38854420347644       6.24610276853462
F         7.64919134349039       0.85441379448887       7.35942552451546
