48
C14H25F3N2O3S optimized with ADF in AMS.
N         2.00676296334442       1.89674814988530       0.13651409857488
N         0.08980038091081       2.24433988590520      -0.82593809436530
C         3.43950903529831       1.58900451338827       0.32820290576724
C        -0.96424186763913       2.28051346477278      -1.85681911331159
C         3.64723613735348       0.51606075238681       1.39394583855587
C        -1.35949075431249       0.87981782682628      -2.31161500843242
C         2.97631118603429      -0.80319802715538       1.02954756568735
C        -1.76549340421129      -0.05039823817860      -1.17360762435981
C         1.38598813410703       1.97890899267743      -1.04828729918919
C         1.07978409434330       2.09391681123236       1.14013423247313
C        -0.12455500427450       2.30602387898977       0.53469312004025
C         3.15444980037483      -1.90076249214082       2.07248885482573
C        -2.03563786890164      -1.46921566659764      -1.67357301324481
C         2.45055690750154      -3.18632785655601       1.63935321525783
C        -2.34742779160959      -2.43550859737574      -0.53479874133628
H         3.94734143389305       2.53124276785770       0.58775852897270
H         3.79877072261118       1.22110913739313      -0.64612115207168
H        -0.58306737617796       2.88072837559471      -2.69595861322827
H        -1.81002192271275       2.82040061955659      -1.40262887295279
H         3.30283400203610       0.87761174344924       2.38119540752286
H         4.73879603727126       0.37616871707006       1.48772064434810
H        -2.19129984714999       0.99869774575283      -3.02913772571375
H        -0.51181285081761       0.43944804145616      -2.86095392309883
H         3.37083793233974      -1.14006800530739       0.05757497469958
H         1.89924469695299      -0.64079391175719       0.85749905969701
H        -2.65574838114862       0.34572024447552      -0.64482185182377
H        -0.94124286398983      -0.10669455131714      -0.44248392867390
H         1.83362567796102       1.81700901002294      -2.02620062627973
H         1.34501354587710       2.05022169365746       2.18812376809375
H        -1.10914219419268       2.48094626508264       0.94892575608177
H         2.75598645083477      -1.56179872252569       3.04749719563025
H         4.23183745541535      -2.09612198884036       2.22481227792638
H        -2.86879779537117      -1.45452685102163      -2.39990592795420
H        -1.13671238883562      -1.81243685011921      -2.21204201224036
H         2.84761579557037      -3.53574344007460       0.67309475966085
H         1.37204112133512      -3.00915508005913       1.50053709353526
H         2.57687875957104      -3.99310481384592       2.37736309968379
H        -3.23935590794985      -2.11719843715270       0.02939070528149
H        -1.49913983098272      -2.48623294963498       0.16692649717040
H        -2.53078334401234      -3.45388376154064      -0.91040441088652
S         2.21039387564082      -0.64783527002279      -2.69125082731068
O         1.26151912878104      -0.91110652030757      -1.59081815616993
O         3.58859431312808      -0.33388519722823      -2.26506433227077
O         1.67866739830306       0.24062668957475      -3.74590773290007
C         2.35910611675475      -2.33107688467500      -3.50373152250849
F         1.14405729963133      -2.75671734890889      -3.94349037761110
F         2.82319063148274      -3.24603039157644      -2.61022295102061
F         3.20693348503089      -2.30750586978825      -4.56118032133162
