30
C8H12F2N2O4S2 optimized with ForceField in AMS.
N        -0.47582723162654      -0.00843037399938      -0.39963094712901
C         0.95392742232233       0.00567916228437      -0.73154690697692
C         1.79413099926383       0.01341021707285       0.54851274541917
C         3.28628962338171       0.01750319279276       0.23058371906748
C        -1.14943683660030       1.17243507456927      -0.24293857602122
C        -1.12284114078328      -1.20298216200523      -0.23552242833539
C        -2.51071041614527       1.17568993574476       0.07090024750882
C        -2.48329635324177      -1.23507865167701       0.07869708426166
C        -3.17990689770039      -0.03738616709799       0.22451757776076
H         1.21318010749885      -0.88500626339082      -1.34689489410427
H         1.19655350891612       0.90134567756168      -1.34633977696524
H         1.55511737513968      -0.88674156546864       1.15524065861249
H         1.54818551377439       0.91638356423530       1.14822544679916
H         3.55977711952400      -0.89026747648139      -0.34822910505650
H         3.86759029716587       0.02412138235956       1.17641532716921
H         3.55305582738537       0.92153520972809      -0.35708337148716
H        -0.63569429069076       2.11943043910651      -0.35925970738204
H        -0.58834959651459      -2.13899180459954      -0.34628998969426
H        -3.04079721484117       2.11123790903827       0.19436756929650
H        -2.99249885937712      -2.18129495004378       0.20734706109848
H        -4.23522155864720      -0.05081833523395       0.46112993447719
N        -5.14171898466021       1.51303630296528       2.55122887058616
S        -4.22733885460725       0.74727173108501       3.67076218753677
S        -6.75596956001496       1.26504404191690       2.45685234254932
F        -4.16847713057670      -0.88778156127493       3.31615293695054
F        -7.51614245096315       2.16071096949997       3.64882319486095
O        -2.83595166365990       1.31336113539110       3.65570451089284
O        -4.83381442985019       0.92793907098273       5.03396467720324
O        -7.07064220419519      -0.19053706229020       2.66209775969734
O        -7.25396593767621       1.70657845572845       1.11006648050393
