35
C11H16F3NO3S optimized with DFTB in AMS.
N         1.73518660892836       0.19387618224715      -0.53874989869882
C        -0.65717283912373      -0.07338008550406       0.05997559724880
C        -1.97493794194463       0.43704274146684      -0.53013430995941
C         0.41221249705395      -0.21950334934390      -1.03507613030834
C        -2.99668220792872       0.69836067910130       0.58068621755580
C        -4.31169953622478       1.22305960695526       0.00827027415450
C         2.19669022312504      -0.32022175853035       0.61371337747178
C         2.39702972876783       1.17314191775787      -1.17014042501950
C         3.36983956526272       0.14140505089601       1.16769964014830
C         3.57097815624883       1.68003413100593      -0.64693953975849
C         4.06690820102453       1.16756707047474       0.54082402168021
H        -0.81001229074364      -1.03491211318924       0.55907093971981
H        -0.30702879025363       0.64483983367590       0.80492933348425
H        -2.37264789507382      -0.29199261664632      -1.24487358405560
H        -1.78071840978678       1.37166021433413      -1.06529436718325
H         0.49192138799218      -1.25404750160094      -1.38235791788266
H         0.17746069114304       0.42495389510775      -1.88392258786747
H        -2.58526001296771       1.43487770901083       1.27788842330451
H        -3.18128184387768      -0.22755207007669       1.13678314206891
H        -4.14593751195688       2.15714189031668      -0.52966896761389
H        -5.02148221537274       1.40803004337183       0.81479182420076
H        -4.74845909737957       0.49780145716755      -0.68039172473324
H         1.60086063643874      -1.09366518547411       1.08125943414942
H         1.95533755155856       1.56640288574320      -2.07597987991604
H         3.71397011202805      -0.27936203822828       2.10366631973095
H         4.05612768834538       2.50636355742939      -1.14900407826978
H         4.96868821697880       1.57174637268112       0.98342075793415
S         0.94735938698845       3.20809599655194       0.44473986841885
O         2.15296811715390       3.96586709167375       0.17726896007258
O         1.08764931385226       2.19791747596191       1.48620205758413
O         0.27303082869761       2.71482414237973      -0.75549177904413
C        -0.26057219543155       4.41557973223098       1.15108664662090
F        -0.50070639231896       5.40581769533225       0.30128488880048
F         0.19091167053423       4.93495621732769       2.28566854880581
F        -1.41287639023765       3.79671483559213       1.40572043195572
