34
C10H22ClN optimized with ADF in AMS.
N        -0.48348194667272       0.25013311154094       0.17858876520257
C        -1.47929794281108       1.09571629366799      -0.61110846201515
C        -0.72927692092760      -1.22608778879154      -0.11053185737940
C         0.89378133451099       0.63558712750014      -0.34443723891434
C        -2.92267198509875       0.68849409426992      -0.37851084851561
C        -2.17247614945064      -1.63642534051750       0.12545128879055
C        -3.12069473977543      -0.78797556306559      -0.71990389262700
C        -0.59132813932568       0.53544279446858       1.63401388430539
C         2.06095608568780      -0.08409094964533       0.30172680172033
C         3.36463977424834       0.35752156693248      -0.36794078007075
C         4.57927880865030      -0.34649147186243       0.22920445615710
H        -1.19939020809423       0.91887334316952      -1.67345483382909
H        -1.28148806755866       2.14012595840027      -0.32322870018787
H        -0.03610710190998      -1.78684123738670       0.53092524598657
H        -0.46457939716501      -1.34048135731039      -1.18587920733522
H         0.97051574706007       1.72486069974062      -0.19291809463444
H         0.83800746538232       0.41694040772597      -1.43408501421548
H        -3.53933588490032       1.32637702765589      -1.03464506060307
H        -3.25078164418875       0.89669291260561       0.65638282448069
H        -2.44506933559450      -1.57710458974954       1.19541821875761
H        -2.24682848260619      -2.70062666474057      -0.15602662594768
H        -4.16727726803410      -1.08891491225546      -0.55211681114540
H        -2.87709332202264      -0.94136301966792      -1.78659293619335
H        -1.61873565731456       0.36440344552422       1.96824849997938
H         0.08807700103181      -0.12722539075406       2.18143612461397
H        -0.31341008083832       1.58346596860155       1.80574150707868
H         1.95976264327321      -1.17326707596810       0.17048380769702
H         2.12848817628694       0.12007939477163       1.38481412870508
H         3.47599053137873       1.45163083333787      -0.26585935444353
H         3.29290089273043       0.14658752229077      -1.44837735263228
H         4.49910806373076      -1.43798122705380       0.10365768764405
H         4.66891648535221      -0.13727905467842       1.30747208562446
H         5.51129063544516      -0.02054631298665      -0.25636214493185
Cl       -0.26639026667994      -0.45017346856996      -3.29680954272194
