55
C15H29F2N3O4S2 optimized with ADF in AMS.
N         3.18985600707022       1.40378850748994       0.39930620735274
N         2.80791725319357      -0.68848034497632      -0.05334546240700
C         1.85330743034438       3.46226561600484       0.84256709562858
C         3.15597086020348       2.70713240801777       1.08560143921292
C         0.76784125666604      -2.08850766635144      -0.27844512415159
C         2.25298736746688      -2.04634253781809       0.07723733288769
C         0.61930867473822       2.79493020986770       1.44264552301921
C         0.48587972569145      -2.06150425114246      -1.77897624819122
C        -0.63798065221159       3.64441446996171       1.26169891978546
C        -0.98447136301097      -1.77419037520736      -2.07814316392203
C         2.64677146141603       0.27296328647074       0.86792345578200
C         3.68988158478899       1.16476918697593      -0.86112777869331
C         3.44978021551635      -0.14975443464204      -1.14578519564558
C        -1.89115367497096       2.95923906847703       1.80113236388994
C        -1.28793039412348      -1.72465657964862      -3.57383486287136
C        -3.16312914099681       3.74696764486543       1.50045943468136
C        -2.74339770319319      -1.36695031249818      -3.86056086443601
H         1.98864203876653       4.46573253801646       1.28539553648557
H         1.71325892063477       3.59916195956525      -0.24218556506997
H         0.26705702828019      -1.23164035779417       0.20714111213302
H         0.34028461501088      -3.00082555127335       0.17394785713798
H         4.02406537265938       3.27170290677231       0.71685381642505
H         3.31322325907439       2.50583371143641       2.15754170445316
H         2.43526157141690      -2.36071193398487       1.11612940600661
H         2.84825359224211      -2.69816828527049      -0.58059668121187
H         0.78167303901494       2.59298128587247       2.52063161732175
H         0.44103520842293       1.82939562869947       0.93974330374963
H         0.78332902566094      -3.03060912818615      -2.22270840358462
H         1.09285048721608      -1.28292507154315      -2.26679905010435
H        -0.50082630201776       4.62352890950885       1.75930075771031
H        -0.77603861747204       3.84442789003239       0.18589490489315
H        -1.25170852592141      -0.80168956472581      -1.62684912684887
H        -1.62158482039140      -2.53817584437711      -1.59132637305736
H         2.15435310166021       0.15735709002500       1.82443652217003
H         4.10872099767822       1.95570040679018      -1.47044938061902
H         3.62696598571137      -0.71753658982731      -2.05001271329070
H        -1.97060725489119       1.96161787729930       1.33482257625752
H        -1.78832496995032       2.80316194598233       2.89205962445601
H        -1.04112059191520      -2.70194061656486      -4.03029833014448
H        -0.62937695107288      -0.97375455729919      -4.04356639405001
H        -3.11820985679557       4.75981010110677       1.93413858825913
H        -3.29718866100960       3.84488626919416       0.41210703361708
H        -4.05248970259287       3.24215581438376       1.90652561686765
H        -2.94230555351665      -1.34443734095426      -4.94226432454188
H        -2.98731110112382      -0.37109386033550      -3.45987347603633
H        -3.43074742069956      -2.09698755139093      -3.40103620094624
N        -0.49962556118572       1.76058794128883      -3.43763881697525
S         0.95645280134576       1.72336236148810      -2.83567260865942
S        -1.74595161127895       2.43421446758976      -2.66648671154548
F         0.75042212352473       0.98317149895204      -1.32126906442031
F        -1.28513516744069       4.00914974826278      -2.46330623503044
O         1.74946980897944       0.75250069713995      -3.57387861596151
O         1.57129578818702       2.99092818080008      -2.46089333044929
O        -1.93368156597231       1.95564115643375      -1.30739269854323
O        -2.85737561782747       2.47759263374014      -3.58811206827482
