46
C12H26F6NP optimized with ForceField in AMS.
N        -1.63166458104278      -0.28977777742654      -0.18295905360362
C        -1.91137304001084       1.12398829293810       0.21542154813995
C        -2.64220289762474      -1.21073103768759       0.42888036964998
C        -0.29446337340782      -0.71068723119614       0.35227432521834
C        -3.35501896326833       1.56942177155918      -0.07138204343087
C        -4.10581656024929      -0.80780247369992       0.17120031790999
C        -4.35641868722264       0.63433417267691       0.59582679522742
C        -1.64335962503745      -0.43781644478994      -1.66453351570016
C         0.92714885433557       0.06901070253810      -0.19381853925631
C         2.22268161485055      -0.46176812053194       0.43328330038416
C         3.45243051281380       0.26231998352392      -0.12671917676670
C         4.73945716991055      -0.29369974063532       0.49311873634549
C         5.97480869204396       0.40210981006118      -0.06770880978978
H        -1.24214841455539       1.82837405512157      -0.32400685580079
H        -1.72033682988047       1.26241348669447       1.30476006248110
H        -2.50769576059255      -1.25069854192540       1.53522528051100
H        -2.49823858557641      -2.25085151065681       0.05606480775447
H        -0.28419992279485      -0.61170646654593       1.46313162621030
H        -0.12727746491164      -1.79244980173895       0.13705835488575
H        -3.50353941644518       2.59567756088729       0.32798942288825
H        -3.53957705230603       1.61049273218844      -1.16529051179546
H        -4.37997514386255      -0.94840875744803      -0.89437156923055
H        -4.77170249144134      -1.47337658462917       0.76166639484119
H        -4.26716492174717       0.71844795445201       1.70183144979014
H        -5.38786580536744       0.93069290377991       0.30767433860509
H        -1.01330183215371       0.33269158142917      -2.15734989758507
H        -1.27612600469399      -1.44306274268883      -1.97002038365402
H        -2.65579218512298      -0.31428786256300      -2.09403076409233
H         1.00279881932214      -0.05221799165441      -1.29371185564658
H         0.84090079592639       1.14781431226797       0.04847948219985
H         2.18249190430225      -0.31863031102021       1.53569512961492
H         2.31340189809176      -1.55020134244083       0.22190711497348
H         3.37402296953185       1.34947868378403       0.09624154170456
H         3.48813286407450       0.12784143179525      -1.23057755050698
H         4.81805981071970      -1.38214286634409       0.28093256237618
H         4.71757138768073      -0.14945655188227       1.59517407577949
H         6.04036634168708       0.25161321774418      -1.16649173548208
H         5.94269610324840       1.49006678368739       0.15472318576149
H         6.88124413852871      -0.03159365970758       0.40453373255174
P        10.81358883529447       0.46772833541609      -0.39387402568150
F        10.85449628427316      -0.07356711443807       1.23635628314148
F        12.44778247651743      -0.01048455313602      -0.62343153950817
F        10.23533953209057      -1.08868755508465      -0.83637722125255
F        10.73668137041824       0.94091355473373      -2.04372285517374
F         9.21273551531143       1.05065783760744      -0.18046997935046
F        11.37778821134236       2.01825583788532       0.08481812226189
