34
C10H21NO2 optimized with DFTB in AMS.
N         0.51938455951661       0.22856591064795      -0.41180520400478
C        -0.94911545134660       0.34717270802966      -0.15322768901271
C         0.85130101604818      -1.14994768005478       0.07203430198323
C        -1.16974270743331      -0.35851838332909       1.18450899677889
C         0.00647406472610      -1.33807823444176       1.32604949969299
C         0.82748601244488       0.40117666725885      -1.86631600084208
C         1.24561564831148       1.25688822453497       0.38386150985882
C         2.24114003589988      -0.04618451909270      -2.24618956053168
C         2.60594518825265       0.50131059177144      -3.62381811445312
H        -1.47654498630810      -0.16944042476796      -0.95904163999279
H        -1.23658682161981       1.39922928466026      -0.15055209170013
H         1.92823732961393      -1.19667317154137       0.26278141129466
H         0.56642754605894      -1.85280437802484      -0.71469483649599
H        -2.13162200064384      -0.87468713695294       1.18004527462632
H        -1.17532452309425       0.36265235007670       2.00417264711496
H         0.60686220817984      -1.10240228612293       2.20802002044862
H        -0.33594156647865      -2.37128983354041       1.40137204902291
H         0.68121990901679       1.46081940443697      -2.09613395871062
H         0.09069257321131      -0.17928961429646      -2.42954174734973
H         0.91363337084584       2.24562800252600       0.07071073415422
H         1.04615940770083       1.09520794342179       1.43957691218732
H         2.31354907942315       1.13174151806603       0.21791717496651
H         2.96918783997307       0.29717376716538      -1.50798120628786
H         2.28564177844406      -1.13798725754067      -2.26494895167524
H         3.58976227813228       0.13220376240106      -3.91073308061248
H         1.88162541876953       0.17969239918393      -4.37409975416539
H         2.63327977472357       1.59160119782443      -3.60970431280316
C         4.99889027434579      -0.55033724051996       2.50034364100519
C         3.67434025746377      -0.39674449414980       1.72034379084953
O         2.63325271179867      -0.25491738786707       2.39308946772449
O         3.75568827466082      -0.40879806219303       0.46771575890169
H         5.43536975384526       0.44051015535657       2.62575555686050
H         4.80893535239614      -0.98074236208897       3.48162033026531
H         5.69375554312110      -1.17303242753724       1.94003874020163
