32
C10H14F3NO3S optimized with ForceField in AMS.
N         1.10805239343665      -0.00186477931057       0.53818934185949
C        -1.25282524094629       0.00515281185186      -0.13422524688291
C        -0.27115522728190      -0.01131577756944       1.04106834049721
C        -2.70611906150011      -0.00133846519432       0.34946060317389
C        -3.67269417542123       0.01918530952424      -0.83123889772346
C         1.74162826816088       1.18911361741289       0.30867747528050
C         1.73185707794933      -1.18499334399422       0.25131803355443
C         3.03417655722521       1.21356793999804      -0.22071242642189
C         3.02617838386408      -1.19669931594831      -0.27264951790026
C         3.67776278273845       0.01182084793265      -0.51218093382229
H        -1.07173564581077      -0.88849292432940      -0.77127319534297
H        -1.07076860584240       0.91613389603330      -0.74576179670751
H        -0.44624094521273      -0.91579807437980       1.66643360310741
H        -0.44894482632027       0.87141399206105       1.69552326702780
H        -2.89605041061303      -0.91402534490979       0.95551683102711
H        -2.89422609573126       0.89132885965794       0.98512454095905
H        -4.71829491607972       0.01517930160751      -0.45815742350365
H        -3.51614329380266       0.93454565273043      -1.44120215351217
H        -3.51935888621292      -0.87674255824142      -1.47016506638962
H         1.24421412745993       2.12832785838144       0.52030935029905
H         1.22305780976448      -2.12611124964213       0.41215098497788
H         3.52843347071275       2.15727995395899      -0.41095340729064
H         3.51445972970807      -2.13541314047602      -0.50033625635054
H         4.67618827507581       0.01716413815962      -0.92949241135932
S         0.77654845956663      -6.63980259713274      -0.13366596747451
O        -0.68799323149177      -6.27169674983537      -0.41295855470087
O         1.48090611502186      -6.29173192156159      -1.45318292069236
O         0.75723050658943      -8.17527100669593      -0.14419654475026
C         1.49647497030836      -5.88605287672244       1.35349375663956
F         0.78252141467588      -6.28478357797955       2.46659698772879
F         1.44415656479045      -4.51157583157372       1.24595554116355
F         2.81243151081882      -6.28478940621318       1.48410142282950
