43
C11H21F2N3O4S2 optimized with ForceField in AMS.
N        -1.27734202313998       1.30122343579609      -0.22815662180819
N        -2.65168476708027      -0.40653448152431       0.13398206375912
C         1.10693509327633       1.93290931766537      -0.21664862188273
C         1.57907828456045       0.48106683652867      -0.37714641317134
C        -0.27001175057800       2.15492607170665      -0.85192261455857
C         2.98213519757382       0.28879514976625       0.20358048729124
C         3.43771069508457      -1.16651701390311       0.05217369084973
C        -1.79578452214235       0.16558727286935      -0.73359717198890
C        -1.82230034855278       1.45233984769732       0.99545974593223
C        -2.67786455259839       0.39324496268486       1.21932326974938
C        -3.37210214168407      -1.66263810321936      -0.04816618447630
C         4.83557835815938      -1.36656260651086       0.62756575885361
C        -4.82813671672042      -1.38541569689727      -0.39743320611622
H         1.83452491262486       2.61389198880064      -0.71001536694967
H         1.06266577562554       2.19750254772632       0.86241908661812
H         1.58428474101398       0.21160313558350      -1.45652835819973
H         0.87783566654649      -0.19872202813063       0.15418205154131
H        -0.56562530308640       3.21627873396911      -0.72371028079932
H        -0.21438395178743       1.94750899825860      -1.94353084836456
H         2.97356275638259       0.56172426579101       1.28222793226549
H         3.69529614388891       0.95729296831001      -0.32721894211120
H         3.44678837940643      -1.44646909234608      -1.02403242651334
H         2.72946145323501      -1.83889340022233       0.58451789882958
H        -1.53717763757937      -0.24707675452077      -1.70116254045718
H        -1.60572535175657       2.26414130009607       1.67755838631193
H        -3.26060956664924       0.21213683978888       2.11296606901624
H        -2.90788464691919      -2.25199184605159      -0.86916148757986
H        -3.31342458086272      -2.26687403940438       0.88318806500597
H         4.84434833336465      -1.12047747443876       1.71081773692645
H         5.56597411186133      -0.71893911722951       0.09739952729480
H         5.14131693343676      -2.42624699235969       0.50059772027960
H        -5.31796363930081      -0.81932582100693       0.42283556220897
H        -5.36621209222354      -2.34481245398613      -0.54668253762896
H        -4.88411928497279      -0.79133487279189      -1.33466344267217
N        -1.92067288788313       6.73805885952362      -3.94219059314752
S        -0.58543555862135       7.61891825451931      -4.28611418101693
S        -2.11943540517477       6.04557197761898      -2.47370835164678
F         0.71720977093535       6.58839427479050      -4.49660667439580
F        -2.56090306684486       7.22000009416668      -1.36561751670006
O        -0.81039501740150       8.40168582131893      -5.54798575338100
O        -0.28469805855609       8.55864899883776      -3.15211542009360
O        -0.83004874861865       5.41652017700681      -2.02827680881368
O        -3.19698111534178       5.00166623952230      -2.54896547636017
