31
C7H13F2N3O4S2 optimized with ForceField in AMS.
N         0.08624466748982      -0.57720972938952      -0.35892282371304
N        -1.98532280793422       0.16895092367840      -0.05445632346735
C         1.45063245908105      -0.70274618523965      -0.86937806555841
C         2.48315335456387      -0.37993878473231       0.21764389887668
C        -0.83198508190125       0.33665961435104      -0.72960426614467
C        -0.50929516971672      -1.35179546022951       0.57157280864413
C        -1.79564675503812      -0.88777952288575       0.76033609739957
C         2.35297388087561       1.05342209840858       0.73152970323874
C        -3.19277161976456       0.97772561670484      -0.16396287700660
H         1.59986114714064      -0.02046963040600      -1.73507914291724
H         1.61075938768551      -1.74117816708477      -1.23103454373432
H         2.37011156230308      -1.08761697441524       1.06678479207685
H         3.50140345812507      -0.51532007334006      -0.20723908688227
H        -0.66170482133416       1.11056264726893      -1.46822853588026
H        -0.04489763649559      -2.19098943203143       1.07338122390381
H        -2.53368039492412      -1.28767181829737       1.44363479783094
H         1.38137331047525       1.19369195371252       1.25125119629075
H         2.42862529952616       1.77677902136772      -0.10814926759295
H         3.16926148937081       1.26196405933574       1.45471060846775
H        -3.03484143315982       1.81792200471253      -0.87370542980252
H        -4.03117775654690       0.34952518643746      -0.53053467871402
H        -3.45424343301964       1.39584087370201       0.83090703442711
N        -0.62877850168433      -5.01932278092054      -0.10150388785115
S        -0.48515282584540      -6.55749615037739       0.43803678569301
S        -1.22427011277223      -4.69091721761190      -1.58987780410592
F         0.83746794894195      -7.27723625162869      -0.29391176549157
F        -2.88814327762102      -4.87138129141738      -1.56887470101667
O        -0.28634906354406      -6.55182739209221       1.92702913502918
O        -1.71951309735006      -7.34282505226576       0.09235091189864
O        -0.64388038679460      -5.64150369383698      -2.59911694901804
O        -0.88430929473199      -3.27858599267731      -1.97080209578017
