58
C16H22F18NP optimized with ADF in AMS.
N        -0.62504070368735      -0.51125065560261       0.99398208883317
C        -1.98661454124554      -0.34290504090729       0.35758381739053
C        -0.59033012005184       0.64313703452916       1.98162751046890
C         0.46885769005526      -0.39536715549469      -0.04185798696207
C        -2.91919165179081       0.03963738281195       1.50727023474094
C        -1.99821847082512       0.69053565538370       2.57355388877845
C        -0.53323810338313      -1.82233210497141       1.76651548373951
C         1.87352982425420      -0.51235160859354       0.51861099562202
C        -0.55317418437353      -3.06897701599176       0.91016586706600
C         2.91485077360564      -0.26211856075632      -0.57481203285808
C         4.33655680362630      -0.36538443466111      -0.02773977819879
H        -2.25875535448106      -1.25879915513097      -0.18104555327671
H        -1.88404612391291       0.47918776460291      -0.36690450813800
H         0.19732059380081       0.47414033535906       2.72309151397440
H        -0.36506523134669       1.54132683317664       1.38630657389811
H         0.26941483525973      -1.16930580884289      -0.79890607875069
H         0.31957060825281       0.58663024869914      -0.51990319659266
H        -3.69619515314559       0.72866771247171       1.14635250258347
H        -3.43197928866704      -0.84437197210816       1.91321383464343
H        -2.03232158341105       0.14081209227450       3.52453480972373
H        -2.27974621549679       1.73069296249057       2.78767542075873
H         0.38619586490565      -1.76534930064448       2.35771923038354
H        -1.36794399348686      -1.81590907161268       2.47885667358450
H         2.02538423723686       0.21008453422041       1.33587957168649
H         2.04074903843665      -1.50777652565629       0.95777315500607
H        -0.50828862578074      -3.92711759051314       1.59813700148701
H         0.32358727279155      -3.14005192042805       0.25122819130421
H        -1.46689926029629      -3.17626114932450       0.30674999372045
H         2.77313283524325      -0.99060156748502      -1.39470911428687
H         2.75533147665291       0.73993371721502      -1.01426904660167
H         4.52042909866597      -1.36275825160744       0.40076107254996
H         4.50277578268280       0.36961777586307       0.77414204431542
H         5.07905545274983      -0.18872476387301      -0.81935081821253
P         1.98264305818729      -1.41771626971743       5.01366382866419
F         2.22308681950174      -1.96590123911763       3.42809866760649
F         0.48265441073930      -0.80226496674693       4.51924925629594
F         3.43226887896094      -2.02552628865010       5.52558150763319
C         1.15290461291567      -3.21137083320780       5.23300388530947
C         2.99722271556760       0.23813797900921       4.36108851545802
C         1.59306157062112      -0.54719620846270       6.78036354599623
C         2.09636377869650      -4.45994880600439       5.20815331282555
C         3.99001633467312       1.12266931119292       5.20073425479052
C         0.56476275752639      -0.99208148297620       7.86492671189050
F         0.24507001795153      -3.42171910162036       4.19899152192679
F         0.42591972450787      -3.35816393220505       6.38679641700849
F         2.11747753392947       1.14814915420961       3.77660329714725
F         3.82786060079844      -0.19510045686583       3.34350194861902
F         1.15244435938869       0.72466798169722       6.44798795012386
F         2.77426117724551      -0.41257782064815       7.47234944652373
F         1.32814724453342      -5.58888164785494       5.12957796297828
F         2.82066774706383      -4.54125428503813       6.34577408289966
F         2.93687072245000      -4.47091223624862       4.15088798495233
F         4.61551100740682       1.98111599989355       4.33415190850795
F         3.40061077712110       1.88938867155205       6.13851092350759
F         4.94197122849855       0.36471400490578       5.78303186462988
F        -0.67129525356324      -1.18212287703437       7.34037736458078
F         0.46049170390471       0.00370022147928       8.79167703312118
F         0.96030597793578      -2.10231911463346       8.52312261902216
