54
C16H36ClN optimized with ADF in AMS.
N        -0.03143597445309      -0.01048993643891       0.09202562442602
C         0.83214665355828      -1.07364820941134       0.73752639714472
C        -0.86799912674043       0.66924115378862       1.16134693155780
C        -0.92422361999263      -0.67792984585436      -0.95692144540351
C         0.80182691000869       1.05446762532274      -0.61759218768507
C         1.84829795263623      -0.58909857883169       1.75898951542813
C        -1.83971526785794       1.71961440065185       0.65416256143134
C        -2.05398800732197      -1.53222115831673      -0.41494296044002
C         1.83102758206914       0.52135692179200      -1.59784513934674
C         2.71451769918366      -1.75432252820297       2.24679643235813
C        -2.76788635170199       2.17637554127752       1.77970999236709
C        -2.81160376742754      -2.16465828142933      -1.58784071022086
C         2.34263438581023       1.67889544515055      -2.46238917712363
C         3.74449744470107      -1.30942015237255       3.28143243490739
C        -3.73276840698400       3.25903800554722       1.30093197871234
C        -3.97952678586767      -3.02664476853171      -1.11925776157868
C         3.38324483358650       1.22043361286707      -3.47847631698700
H         1.34617839900865      -1.58540109728738      -0.08938835602283
H         0.14036932434334      -1.79331721814806       1.19956322961431
H        -0.15315417655643       1.12164266175188       1.86370735107759
H        -1.39773812297174      -0.13673182812219       1.69381616517510
H        -0.24605397401091      -1.29635764717116      -1.56203973569425
H        -1.29792216530758       0.14719145147828      -1.61223995471366
H         1.27176221970331       1.66355834591662       0.16988742653298
H         0.06282011213211       1.65959587745281      -1.19265622397298
H         1.34685040309220      -0.13470331098960       2.62944704846983
H         2.50138348859369       0.18092045837096       1.31595876409362
H        -2.43155723888133       1.34696650883925      -0.19625803310963
H        -1.29604231584175       2.58538306917698       0.24517026990076
H        -2.76609485184838      -0.92017900605622       0.16373288597597
H        -1.68985505609038      -2.33706374468146       0.25012401124790
H         1.36320334029858      -0.21063164899304      -2.27655674609150
H         2.67763217861635       0.02285872651573      -1.08988435290527
H         3.23018049361547      -2.21392339394958       1.38450581185098
H         2.06852086520433      -2.53901017296756       2.68056192796493
H        -2.17304895886308       2.55818834211852       2.63067074601806
H        -3.34162587174784       1.31145047182139       2.16209536916614
H        -2.11391346005467      -2.77769396788633      -2.18650339223040
H        -3.17140055969530      -1.36066780477009      -2.25314707627630
H         2.77107808887933       2.46626402110708      -1.81555197396920
H         1.46961922009809       2.11867336270508      -2.97748247808970
H         3.25318006153619      -0.87227529076159       4.16525249521715
H         4.42118312718735      -0.54874943217722       2.86107794045313
H         4.35747301527299      -2.15749150081327       3.62068425619428
H        -4.33606856303004       2.89617148677490       0.45459839640036
H        -3.18238856208794       4.14564740734374       0.95092721365117
H        -4.41414421277884       3.57022505671018       2.10700533197990
H        -4.70559858452798      -2.42877462885528      -0.54531273489681
H        -3.63297602881882      -3.84950651944113      -0.47292234923511
H        -4.51128181053072      -3.46939408644995      -1.97469652957324
H         2.95888152826830       0.45900091359974      -4.15249046184330
H         4.26800633432724       0.78387099415440      -2.98582966002230
H         3.72257449084606       2.06310657775606      -4.09927485952316
Cl       -1.48686748408637       2.02517487471953      -2.77337193346201
