52
C14H18F18NP optimized with ForceField in AMS.
N         0.37214892788854       0.21866572300800       0.14803518523749
C        -0.58964134704542       1.24697826289519      -0.36277076842877
C        -0.12733226225629      -1.15705264885172      -0.15943143842183
C        -2.04640604420502       1.03386059613230       0.08934286056491
C        -1.56750827696483      -1.41107122959416       0.31960005067951
C         1.67022074357563       0.45911657668540      -0.56447682851891
C        -2.52279284362864      -0.37234779873827      -0.25606623181625
C         0.57420125686086       0.39566588277519       1.61200709535775
C         2.83876095087511      -0.45779927256184      -0.15700249796801
H        -0.59526150257108       1.24952942393887      -1.47796053540425
H        -0.27383781533526       2.26787363208084      -0.04715123152871
H         0.51378528777050      -1.92881632727031       0.31877212002541
H        -0.09543345346749      -1.34236339379601      -1.25785385503817
H        -2.69595842046971       1.76958131191536      -0.43263893188165
H        -2.16130129197005       1.22248735826132       1.17663604145831
H        -1.61833077781755      -1.40308862178827       1.42904697146327
H        -1.88868526270481      -2.42077618419283      -0.01641756411463
H         1.53374888681678       0.34473920210681      -1.66453891053870
H         2.00443496390903       1.50898233882097      -0.40097567833666
H        -3.54072793303985      -0.53228781008575       0.16022668042001
H        -2.57951438189552      -0.48788569040355      -1.36115756269943
H        -0.37942885131145       0.38671691322201       2.17413122207838
H         1.18680059014385      -0.42588969478376       2.04060468014647
H         1.07910413456580       1.36270093314334       1.83239472941429
H         3.72399072266996      -0.20571918433997      -0.77839941705854
H         3.13023485705067      -0.30178175267611       0.90109741563682
H         2.60768352445856      -1.52607185804867      -0.33817398161849
P         6.21687931118611       3.45508289145516       0.24704335667294
F         6.50939809938401       2.93480641998281       1.86498225421145
F         6.60894876776578       5.12912777535550       0.12848635036074
F         6.03915022486298       1.74523561045157       0.31713885364294
C         8.14984493059900       3.48720081688058       0.22525388402556
C         4.71478552079262       4.13383116185783       1.26119403230818
C         5.44295148678889       3.15977426333131      -1.48672014212614
C         8.84787398087148       2.11099760288429       0.28680974731753
C         3.71955140189363       5.06650905866608       0.52553566116362
C         6.24978410127010       2.33134420413564      -2.50336818089263
F         8.60272849292584       4.21340212315954       1.32086679791187
F         8.60844289279801       4.14499767033409      -0.90513654257590
F         5.18411158533747       4.85835574247118       2.35288023812297
F         3.98504952519939       3.05816769000148       1.74527093757898
F         5.19732104060441       4.39176125389214      -2.06575890197515
F         4.23191693589902       2.50941237564837      -1.33155190953953
F        10.21695239473082       2.30515986522036       0.33747665016592
F         8.56989839541284       1.35461614601229      -0.83020449080299
F         8.47620758017679       1.40335016315707       1.41514076384871
F         2.86502829237510       5.62477483658500       1.46033137768400
F         4.35957428277809       6.10256132678616      -0.12756376347096
F         2.93850446741352       4.37256601363061      -0.37533760345400
F         7.49774495777402       2.87134099468385      -2.72530801925866
F         5.57375388576375       2.33459482356846      -3.71088108507454
F         6.36664065759399       1.01497014409421      -2.09667081165451
