22
C6H14ClN optimized with ADF in AMS.
N         0.50370889532859      -0.09475325063218       0.04567640241242
C        -0.25662264478148       0.98347032002622      -0.69658793522525
C        -0.56252689689490      -1.14048875381520       0.44914425228649
C        -1.64178412050637       0.97512523096611      -0.07529123729995
C        -1.91472887882906      -0.52780397342646       0.06813345579990
C         1.14964592884298       0.46565673804547       1.28430460380548
C         1.57174116846513      -0.71368596284011      -0.80550007584869
H        -0.30454551282644       0.67572612244185      -1.75291930642329
H         0.29768173499763       1.92782703752447      -0.61631319213574
H        -0.41816444484060      -1.34121067420140       1.51782237795951
H        -0.32116244327930      -2.07976771314112      -0.06085598891259
H        -2.37487369315784       1.49009238687139      -0.71362664412764
H        -1.63663251775438       1.47633183539463       0.90643634016795
H        -2.68469295890448      -0.75271411134808       0.82073066071044
H        -2.26124423301576      -0.93241438673742      -0.89739168821462
H         1.90805176636965       1.19668995154187       0.97297266504197
H         0.37696813957414       0.94425150058004       1.89876646440750
H         1.60661014184637      -0.40980854642105       1.80301762428934
H         1.09474801016813      -1.13725092773812      -1.69911871698376
H         2.28544553915059       0.07337494300751      -1.08531650504007
H         2.03931187797720      -1.50350047187165      -0.17444018428923
Cl        1.94265220437022      -2.64032399972677       1.79950733341981
