28
C8H14F3NO2 optimized with DFTB in AMS.
N         0.83688212087493      -0.46451751147038      -0.11183119966190
C         0.39352063340371       0.73178047118177      -0.92396125833668
C        -0.30971251539004      -0.81885317620554       0.78555621421824
C        -1.08004985316783       0.96085918808809      -0.59863024366287
C        -1.54626741023919      -0.34941366330551       0.03516330973240
C         2.05049699722093      -0.14645195501104       0.68583260601845
C         1.14814459582442      -1.60465838134892      -1.01903702895478
H         0.55652672268904       0.50666102271226      -1.97739317669304
H         1.02320434811728       1.58179145903955      -0.66454585211668
H        -0.19369450715186      -0.26570579990227       1.72066920732200
H        -0.29214372974277      -1.88872834209292       0.99334955446774
H        -1.64782746008666       1.20278250783078      -1.49763120503354
H        -1.19119072093466       1.78251735132341       0.11343148384684
H        -2.38859740151523      -0.20626007862355       0.71254447876326
H        -1.83111514052911      -1.07335864691752      -0.73221215050006
H         2.84357352394102       0.13058971077769      -0.00805990868703
H         1.82905478862646       0.68291574548284       1.35464284827503
H         2.33736106268560      -1.02632199698033       1.25853360990367
H         0.25158643998543      -1.87333333829091      -1.57327344738864
H         1.93487882084069      -1.28201625056491      -1.70063736629067
H         1.49274139833423      -2.44804175319191      -0.42390736293082
C         3.98787608045521       0.51150163588972      -2.54133395571038
O         2.83384787799571       0.60814329150107      -2.09027693568795
O         4.56266213016191       0.99568040957123      -3.48499419235243
C         4.86521507642626      -0.51031631832856      -1.60663236889956
F         6.06257363654811      -0.86801254292998      -2.06741490270344
F         4.16461717933528      -1.66400707206288      -1.39160583872657
F         5.05366830499108       0.01457245792873      -0.36738374291059
