58
C16H22F18NP optimized with ForceField in AMS.
N        -0.50486123280429       0.00541160333296      -0.00214231189270
C        -1.42790148882391      -0.56643437163835      -1.03064057398963
C        -1.40364195875836       0.60504371654963       1.03208034438666
C        -2.83106276820386      -0.07155884567460      -0.73656595336247
C        -2.82226741275901       0.14995022862943       0.74920980270241
C         0.34252961419661       1.07094408285249      -0.63105167453463
C         0.31441021407071      -1.08488997684744       0.62200493042387
C         1.36412405121670       1.72647324752396       0.32872259407803
C         1.30987823802469      -1.77231499265908      -0.34331886730478
C         2.06483694080553       2.90483919975990      -0.34134180029735
C         1.99136899383986      -2.95998587903309       0.33018347832982
H        -1.14491344846112      -0.29981965994641      -2.07448725558166
H        -1.46520534436135      -1.67947281349221      -0.99080084742055
H        -1.12042178418013       0.33266633792926       2.07434329526634
H        -1.40977664606305       1.71873302477186       0.99023403397353
H        -3.00987391166264       0.89287426427256      -1.26173816652952
H        -3.60549477200368      -0.81121243697057      -1.03548919896159
H        -3.02389445231967      -0.80903654361161       1.27599857995781
H        -3.57311504779539       0.91121703716365       1.05409127226821
H         0.89606165882193       0.66446221734795      -1.50602710732935
H        -0.31482742392863       1.87031091533824      -1.04628419581912
H         0.88567385969881      -0.69414126943042       1.49282202579599
H        -0.36380220776095      -1.86391308741831       1.04226439859046
H         0.86562610046806       2.09230009828435       1.25024780792771
H         2.14446814753195       0.99493487072188       0.62361299999122
H         2.10412811452380      -1.06237204376053      -0.65306760394219
H         0.79261047029555      -2.13446240703982      -1.25585707808349
H         2.61160960672409       2.56321106394738      -1.24606103909356
H         1.32562693722701       3.68199728129849      -0.63016252892377
H         2.79410540141079       3.35479268201579       0.36506418099671
H         2.55603065789157      -2.61926233807075       1.22326949853257
H         1.23855057380599      -3.71678755664352       0.63737043806375
H         2.70270690608095      -3.43430489493323      -0.37858133025320
P         7.12125075738655      -4.80696128632803       2.89796225266009
F         8.73136493734462      -4.38590888160278       3.33904115788373
F         7.04677758749438      -6.35885540741721       2.15067260480853
F         6.90177614681898      -3.40492629901178       3.87077096258294
C         7.42059084059311      -6.00403451758902       4.39422077663524
C         7.98090858345536      -4.17384762255642       1.28292671864023
C         5.25826768547288      -4.39520879126271       2.58420412114383
C         7.76973501209701      -5.36690188040872       5.76693351781322
C         7.18093492395078      -4.28774902992234      -0.03212268135579
C         4.26731322807251      -4.71553040877330       3.72067765782506
F         8.47236234673453      -6.85789852011935       4.08432438381724
F         6.30702683349803      -6.79834379816979       4.58114738834088
F         9.15820001750949      -4.88611462521040       1.07032989280420
F         8.30664412853270      -2.83448333794621       1.44514610180304
F         4.82224646966334      -5.12103855786169       1.49036078350771
F         5.12164614031240      -3.05065755941827       2.26653887116015
F         7.79104698673533      -6.36538078672864       6.72500336712749
F         6.84159972552519      -4.42823493022480       6.16342025916191
F         9.02215573166664      -4.77946426615321       5.75066182910853
F         8.01173347470921      -3.94829458022729      -1.08606504839501
F         6.73646714934738      -5.57895349857159      -0.24678459612565
F         6.11241398270892      -3.41351840543966      -0.05302867243485
F         4.07110493241014      -6.07898955296197       3.83031867722355
F         3.04296888516402      -4.14538768512375       3.42121420972443
F         4.68217074034790      -4.20450960834089       4.93026663787377
