19
C7H10ClN optimized with ForceField in AMS.
N         0.14601926810675       0.03097672751076      -0.35515235545708
C         1.58897090890135       0.05655288101548      -0.62207556968646
C        -0.53936851879987       1.20563986699020      -0.20633407621616
C        -0.50242060274817      -1.16866908569710      -0.24279785648185
C         2.37206049364756       0.01010862289050       0.68570378397216
C        -1.91056052169906       1.19754185526858       0.06012472165826
C        -1.87322752657345      -1.21205160538105       0.02238957897439
C        -2.57898385921281      -0.02006850583206       0.17508500941722
H         1.87830601027236      -0.80769744179988      -1.25917721924823
H         1.86618304610928       0.97676515368903      -1.18272324268270
H        -0.02701197027940       2.15681635876654      -0.28713292703773
H         0.03949462237590      -2.10006205139826      -0.35424832585509
H         2.12506208087731       0.89444146477890       1.31067810934035
H         3.46105467202566       0.01519699025133       0.46973900754122
H         2.12254568816208      -0.91359194837773       1.24870416240169
H        -2.44797096437177       2.12872965444634       0.18024497487781
H        -2.38177616215379      -2.16292271711234       0.11207759553327
H        -3.64041147448164      -0.03999972229377       0.38539908312103
Cl        3.83047154474173      -2.88089591581547      -2.05268846607207
