29
C9H16N2O2 optimized with DFTB in AMS.
N         1.35156022845942      -0.12138975579840      -0.30771792912294
N        -0.67057804039122       0.60495155256158      -0.24368941088118
C         0.15254515668528      -0.24903489717452      -0.86440490381460
C         2.56981565793809      -0.81533589888840      -0.71187834956372
C        -2.09494582580866       0.74743782971927      -0.50479488047366
C         1.31332888830612       0.81606996211597       0.68688236366256
C         0.03355151429352       1.27169608323366       0.73030906554654
C         3.13480591899364      -1.61457474829389       0.45508511619968
C        -2.89063969128032      -0.14457811711142       0.44420560036750
H        -0.11181803838370      -0.90104951467137      -1.67915210709080
H         2.33012385214128      -1.45814190937134      -1.56333890720483
H         3.28079968257674      -0.03233187762638      -1.00971487995010
H        -2.36191873180362       1.79790604491459      -0.36170602233239
H        -2.28241565820702       0.46984496929263      -1.54569373756237
H         2.25566190378167       1.06555282234626       1.24803959337950
H        -0.43211592724616       2.01372050790690       1.35418775319858
H         3.44500096993621      -0.93896527768335       1.25253580520156
H         4.00437281048579      -2.17285369329826       0.11100895332298
H         2.39239345231162      -2.31320705966471       0.84264251148569
H        -2.61576891252561      -1.18907346397011       0.30062988661968
H        -3.95478482468625      -0.02702138420442       0.24523012404977
H        -2.69075379636646       0.13205187094432       1.47869952608030
C         5.64967477849410       2.54833501187711       1.08043905254835
C         4.32411992963583       1.80048169715427       0.81717427895618
O         3.77499924622191       1.26616844947841       1.81536671424670
O         3.89279599554624       1.79241173560044      -0.34920574343417
H         6.09751142451216       2.20965379432927       2.01262526899604
H         6.33565462271336       2.38712150770700       0.25068974433998
H         5.43369962386608       3.61412093587489       1.15314441472915
