42
C12H21F3N2O3S optimized with DFTB in AMS.
N         0.07772183863373       0.85116923926682      -0.61147036992765
N        -0.65889282182654      -1.07341443610944      -1.23426874512508
C         1.51042234709928       2.11861950112475       0.94394470204739
C         2.44984683813511       0.95935632750740       1.28826967624282
C         0.96185164611042       2.00844589942882      -0.48101605660710
C         2.92734024445496       1.05304977658870       2.74061059119091
C         3.94181574052200      -0.04524180870829       3.08619065557937
C         0.28640735953615      -0.16248360659358      -1.44605061387854
C        -1.02436798652743       0.58176830927673       0.15602959966220
C        -1.48603390367878      -0.63484971409645      -0.23543424371402
C        -0.69349305540795      -2.41086637907882      -1.82705008633723
C         5.31751376096436       0.20749971859503       2.47129815232487
C        -0.20359708644805      -2.39997445022776      -3.26690298755827
H         2.05322852578871       3.06631800342738       1.01120233730900
H         0.67826031112696       2.16023285386063       1.65439699387929
H         3.30505331517151       0.98389577712241       0.60939033210691
H         1.93124829811826       0.00833123995172       1.13555028063470
H         0.39192766815051       2.90430520627761      -0.74608076028922
H         1.77799958512394       1.86797201103318      -1.19485555459971
H         2.06096552774991       0.96137615850333       3.40607728094297
H         3.37727552255233       2.03689435012981       2.91728014432809
H         3.56266109305883      -1.01201246634859       2.74019342692336
H         4.03928728070082      -0.09354814212336       4.17637459625921
H         1.08998732839015      -0.21578931428477      -2.15959768096748
H        -1.39007187542226       1.26402853706062       0.90285363537038
H        -2.32261358191739      -1.21561501370220       0.11177151763451
H        -0.04447904995607      -3.04597891970259      -1.21498330165719
H        -1.72329334087767      -2.77234255244092      -1.76041310420206
H         5.69980848579576       1.18570088161630       2.76878582607107
H         5.26880384174920       0.16346029355219       1.38401416281033
H         6.01663189217861      -0.55732105131230       2.81052317464402
H        -0.72993561033914      -1.64562046692184      -3.85134557509687
H        -0.38808235535934      -3.37984103292011      -3.70518437863494
H         0.86682944810093      -2.20343954894954      -3.30258008714200
S         3.32466649332447      -1.35885319779281      -1.18789005661201
O         2.06685999454954      -2.07680444635190      -0.99106725928477
O         4.25409866280998      -1.44154092919296      -0.09018400790243
O         3.13250072889586      -0.01872758137165      -1.73844146074945
C         4.10542375315381      -2.28168096286461      -2.58861496524255
F         3.24464783452619      -2.31460009751241      -3.61405828800278
F         4.38293040909689      -3.53356783669892      -2.25020233579337
F         5.21949822279143      -1.69880635241762      -3.00568744483668
