58
C18H37NO2 optimized with ForceField in AMS.
N        -0.00800795830988       1.98846693601014      -0.00995143126997
C        -0.68460326825473       2.90123742250139      -0.98221340777035
C         0.65485621672155       2.89648089629181       0.97622073517177
C        -1.02425914848345       1.14305768016833       0.69708145781097
C         1.02045903164262       1.16765999368010      -0.72887068572573
C        -0.20211162499891       4.31519860991840      -0.72168712171880
C         0.14858280363106       4.30617594240131       0.73918185208822
C        -1.76311354017953       0.13051512564161      -0.21192047690986
C         1.77086871771639       0.15182986720533       0.16626460607343
C        -2.86943903813422      -0.58505266718419       0.56978436590911
C         2.89476043175616      -0.53809562876220      -0.61581081166641
C        -3.61737115219016      -1.59407652425134      -0.30818774848274
C         3.64432004582308      -1.54495001547019       0.26508582205405
C        -4.68720879094289      -2.33318703922059       0.50414921630388
C         4.72764025148186      -2.27598321305915      -0.53562280195659
C        -5.44729369139167      -3.33345906292174      -0.36142692386287
C         5.48509104439341      -3.27013257970814       0.33973461475376
H        -0.49793567537816       2.62857356524106      -2.04594200164668
H        -1.79142551078554       2.91061682327661      -0.85154472446965
H         0.47407920279576       2.60390489225040       2.03576024707263
H         1.76116715123207       2.92592171933435       0.84457807558455
H        -0.55191768237792       0.58240530397074       1.53389436000692
H        -1.78287509419771       1.80203411092934       1.18042129815182
H         0.55630316515188       0.61285807804728      -1.57391037347225
H         1.77096463829972       1.84388003862469      -1.20059908449369
H         0.70744994754212       4.52194004767723      -1.32818570879372
H        -0.98492829097167       5.07124834362975      -0.94966276990874
H        -0.76423194789913       4.48756646679928       1.34897217694486
H         0.91863175223982       5.07137509350303       0.97972837723555
H        -2.21198631272786       0.64443340481455      -1.08730586080148
H        -1.05438698190531      -0.63800416209978      -0.58391538525586
H         2.20593066305642       0.65943322513261       1.05239273452371
H         1.07116234636079      -0.63196354034182       0.52309782131795
H        -2.41126581788345      -1.12013878654572       1.42855634792915
H        -3.59145064649883       0.16551633986455       0.95951665814922
H         3.61125221576925       0.22703684562071      -0.98731916173343
H         2.45768490101119      -1.06780680275380      -1.49085230445134
H        -4.09978293941665      -1.05802049782194      -1.15498113287580
H        -2.89482627339009      -2.33196231037363      -0.72134787460693
H         4.11478442414742      -1.00718627875826       1.11766019669434
H         2.92427930012291      -2.28925324684743       0.67115218142068
H        -5.40995876015160      -1.60162093077301       0.92692140903176
H        -4.20760735026353      -2.87902456459528       1.34589990853650
H         4.26041580286529      -2.82633059078505      -1.38121992788997
H         5.44958757007614      -1.53943059875668      -0.95080444197148
H        -5.96314685931208      -2.80962529646309      -1.19394670744407
H        -6.20898243648023      -3.85493970194430       0.25576117287726
H        -4.75042060730389      -4.09078943896154      -0.77924862476233
H         4.78839946474404      -4.03009205596912       0.75322134068342
H         6.25542828600906      -3.78929741408098      -0.26849534352196
H         5.98993622231278      -2.74141744343862       1.17595738471912
C        -3.29718201414336      -0.32457802794134       5.95436651457337
C        -3.39813965298069      -0.56895751854810       4.48223899175568
O        -4.01944516275640       0.20865071682101       3.77626229484611
O        -2.86250482600693      -1.54553116913971       3.98391380354379
H        -2.78454434262300       0.64286873645236       6.13768338395106
H        -4.31444253321265      -0.28937142518182       6.39742665128397
H        -2.71997428825064      -1.13629192730940       6.44676596386406
