43
C11H24F6NP optimized with ADF in AMS.
N         0.09768659835145       0.20757860751369      -0.19457575368363
C        -0.31923667935784       1.06651285882412       0.99127002550340
C        -1.10444163463688       0.00146304946342      -1.09442336763781
C         0.64693163034507      -1.11741207608593       0.32317171324893
C         1.14301878559430       0.96277170423776      -1.00646154443504
C        -1.50891511887438       0.49471268598908       1.74580635261426
C        -2.30779130586968      -0.58830482095890      -0.37449732687395
C        -2.70898261130417       0.26898468854586       0.82732601413829
C         1.28880962354524      -2.01387529699715      -0.72112341790347
C         2.44809224459690       1.25224292867027      -0.28992601085162
C         1.65509560980368      -3.34935577293831      -0.06806916952278
C         3.40205019385029       2.00564610148286      -1.21683665410463
H         0.56031728838413       1.15224653457027       1.64183905632919
H        -0.56789307076098       2.05289483966168       0.56538240603945
H        -1.35164653826657       1.00079275779282      -1.48851932276765
H        -0.77540219092932      -0.62537793566819      -1.93471237382106
H         1.36792999211034      -0.86616883137262       1.11325844280998
H        -0.19910940933957      -1.63463882343511       0.79154959927207
H         1.31219350812015       0.36188552744549      -1.91390964268765
H         0.64700310949200       1.89797341065502      -1.31604388739662
H        -1.22105622314065      -0.43577303352003       2.26162328521026
H        -1.75307285970746       1.21394905608648       2.54473214467941
H        -3.12926343008978      -0.64790099534330      -1.10830289631440
H        -2.10325368266079      -1.62567573336700      -0.06077194358643
H        -3.53498069515877      -0.20679493466265       1.37898733445413
H        -3.08483707573659       1.24463731865445       0.46627716311988
H         0.61085792992045      -2.19210916567224      -1.57414790984541
H         2.20709095501387      -1.54711908792116      -1.11119876489447
H         2.27595470987343       1.85076978655074       0.61640698935520
H         2.92743830925644       0.32589730491435       0.05577051677119
H         2.15190864887786      -4.00704243722710      -0.79515793990935
H         0.75807325430212      -3.86915034651272       0.30350999490395
H         2.33919115460748      -3.18417430349565       0.77711816771195
H         4.34262317493053       2.19982819340248      -0.68226669561034
H         2.98561093363181       2.97407521565079      -1.53830512319710
H         3.64173227715394       1.42137365634519      -2.11985567855992
P         3.65447340843921      -0.41717475892733       3.07355514158653
F         5.09276599583234      -1.15125747453232       3.31988735222419
F         2.84447802057029      -1.66758673080887       3.77856111282551
F         3.74744181135730       0.38205222727095       4.49747056085515
F         2.15147229193596       0.32198394130201       2.77103341395972
F         4.38504565549612       0.84129901296843       2.28529997616115
F         3.50406487544073      -1.20416818585162       1.58555311772954
