29
C7H13F6N2P optimized with DFTB in AMS.
N        -0.86633119611001      -0.46694143353602      -0.15908647491112
N        -2.75353255426594       0.14456694902516      -0.99266496955196
C         0.53473985408639      -0.46896592578998       0.25041602118654
C         0.71934852629762       0.21253835148812       1.61299717322925
C        -1.47427377973132       0.48666611085002      -0.86216334892141
C        -1.78948985068534      -1.40794425708875       0.20947628049432
C        -2.98066429089647      -1.01932567567971      -0.31587492316231
C         0.63166048878974       1.73216628165596       1.52248383993588
C        -3.77976214806454       0.97866809802853      -1.59473079820438
H         1.11381574318773       0.04133341321716      -0.52466009369901
H         0.85444078644473      -1.51317038759516       0.30189931100138
H        -0.03997951702535      -0.16186203595246       2.30322262264142
H         1.70314093280421      -0.08081659327274       1.99148411960991
H        -1.01578689927703       1.37423655722243      -1.26060836381071
H        -1.52828577041717      -2.25851838748113       0.81354178958757
H        -3.96126490430492      -1.45474177543948      -0.24325121262558
H        -0.34859110234546       2.03886486424636       1.16393719188022
H         1.39593662122435       2.12408970848334       0.84931774680962
H         0.77979694476911       2.16189145814919       2.51214103127295
H        -3.37277630977529       1.47153526864153      -2.47623061193854
H        -4.62748311024953       0.35417527708431      -1.86790238635420
H        -4.08936100333325       1.72253355733577      -0.85877404213516
P        -3.26545511801344       1.79592280985722       2.14188899859170
F        -4.30415276499111       0.84459578237355       1.24243499193164
F        -4.30202643632967       3.04708153395611       2.01726582705419
F        -3.96098076977898       1.27917839419431       3.51696121219151
F        -2.18550532053687       2.70512988085450       2.96459088945739
F        -2.20054834759680       0.50639418552187       2.18195948090033
F        -2.53503746497536       2.28432631285002       0.69366553593858
