38
C10H19F6N2P optimized with ForceField in AMS.
N         1.90593135421551      -0.93345686156145      -0.22572839531815
N         3.14339442911148       0.90932041404641      -0.11450923947472
C        -0.37598570348830      -1.86894997607104      -0.05989341445061
C        -1.04507505407498      -0.51260311465972      -0.32384613682589
C         0.99944800459676      -1.96173864426529      -0.73300848329140
C        -2.45758694364853      -0.46385564632130       0.26734245301351
C        -3.09520082993722       0.91167927158159       0.03864457086295
C         2.36983277724028       0.13661474997710      -0.90051171007080
C         2.40652325305892      -0.83597804007948       1.02277788878066
C        -4.50796390351443       0.96894492028753       0.61183848556351
C         3.17491538560759       0.30843833831612       1.09115356220218
C         3.78195031506941       2.16841009642679      -0.47416610005568
H        -0.26636256022950      -2.02776038895254       1.03502982356941
H        -1.01821322524358      -2.68291868338167      -0.46157357576758
H        -1.09932698443605      -0.33466850844342      -1.42075081400702
H        -0.43368976966193       0.29523810966230       0.13446400458513
H         0.87599923907857      -1.84980827237254      -1.83249219558240
H         1.43968576664040      -2.96440935527138      -0.54269842341475
H        -3.08459322880276      -1.24704385741496      -0.21357863580161
H        -2.40816189123575      -0.67000229326750       1.35934684361472
H        -2.47684525755708       1.69633370350141       0.52715703840827
H        -3.13962484672369       1.12814954283910      -1.05100576703588
H         2.12884838806341       0.36061831207464      -1.93270560235467
H         2.21374779528132      -1.53364351117979       1.82725459092013
H         3.70337100047224       0.68123628467056       1.95895566461925
H        -4.48866581873661       0.77802105847458       1.70595033984085
H        -4.93993682496731       1.97651357759410       0.43488662343232
H        -5.15534956683371       0.21344906159447       0.11818299075431
H         4.88066644914026       2.08066035334009      -0.34271695512887
H         3.56455516722194       2.42710176187285      -1.53250786436077
H         3.39813021808300       2.98041017091218       0.17887968345843
P         2.95425169177017      -4.95376269816860      -3.65318493063715
F         3.75005476149827      -3.59244979597112      -4.33444964030141
F         4.23105249887346      -5.98410415440854      -4.16141854984998
F         3.74081231361124      -4.59379234699302      -2.16898877923470
F         2.19550273081434      -6.29203528553074      -2.88922736423084
F         1.60551437481175      -3.97797808426138      -3.23561160780940
F         2.16529941763112      -5.27783439399636      -5.14404721992135
