38
C10H22BF4N optimized with DFTB in AMS.
N        -0.40624184767854      -0.14090640061989      -0.17314866354616
C        -1.27384443574776      -0.04344794330694      -1.39660501612498
C        -1.14928733573601       0.68406957240592       0.83003204317932
C         0.94232452281037       0.45167442457483      -0.47969018364059
C        -1.78770957879669       1.39197378445525      -1.40829156362206
C        -1.68377946861191       1.87944995855111       0.04494883186292
C        -0.29734852072865      -1.55812469424766       0.29860016624939
C         1.93595057864274       0.45317480367494       0.67558326300874
C         0.45491511768844      -2.46435331786307      -0.66566629457744
C         3.21939311077145       1.14907405617660       0.19789741083861
C         4.33224697968146       1.02928398856292       1.23541878581158
H        -2.09132293305532      -0.75902034576280      -1.27905842809315
H        -0.68478784601379      -0.28694417863773      -2.28052286281380
H        -1.96839580063872       0.07344404460301       1.21848367931359
H        -0.48875553215253       0.95909892464572       1.65145953282579
H         1.35205972340307      -0.12499881280930      -1.30795074572614
H         0.77048164310497       1.46810535864060      -0.83521273997016
H        -1.17171261835562       2.00226962183799      -2.07129230409932
H        -2.81696525026193       1.42057913770797      -1.76971187165204
H        -2.65330645968314       2.18500847336128       0.44248387971213
H        -1.00159124088390       2.72837302996810       0.12307459492252
H         0.19336430383670      -1.53973221681578       1.27525705684430
H        -1.31956408962558      -1.92278305069446       0.43513144225991
H         1.53946146396824       0.97967064206707       1.54974034278202
H         2.17440894335466      -0.57090068788586       0.97810651896609
H         0.32376388151674      -3.49373078473021      -0.33263995076277
H         1.51905859043782      -2.23880252498881      -0.67829699506923
H         0.07344616541802      -2.37072545053627      -1.68015034057949
H         3.53977534548308       0.69901807654532      -0.74650264802469
H         3.00373391338736       2.20525572847752       0.00684179932044
H         4.57516296548362      -0.01874579650993       1.41767832796215
H         4.03091735161557       1.48539503370552       2.18014637133524
H         5.22855296001281       1.53427452344829       0.87598742832698
B         1.51508502003362       0.29799769473837      -3.59372734873976
F         1.70715265444540       0.34013917089766      -4.94157957971015
F         2.69758787178749       0.47441575204483      -2.86566683092840
F         0.94799682052256      -0.95918998304862      -3.19580713633405
F         0.58509736436384       1.29204134626650      -3.16706190860734
