41
C13H24N2O2 optimized with DFTB in AMS.
N        -0.48511749108016      -1.79327787698029       0.73366644227639
N         1.63632048537791      -1.43057095256098       0.81066778547423
C        -1.91184525978544      -1.69771965100683       0.99527437356535
C         2.94424496680814      -0.92605061696849       1.19912915652696
C        -2.58238795236580      -0.78006189684161      -0.03202835770205
C         3.37269834827362       0.21058919095197       0.27068587189367
C         0.46736291179434      -1.11415808139558       1.37617367435682
C         0.08278190216009      -2.54870227164630      -0.26239857052212
C         1.43719105175111      -2.37264703860878      -0.16313669512666
C        -2.08188706217365       0.66397937661029       0.07204717931563
C         2.44274858756493       1.42460408202781       0.36306692619918
C        -2.75979961681839       1.56245118578290      -0.96013600435313
C         2.89642768304407       2.54680638810285      -0.56889166026992
H        -2.33546606358857      -2.70395678327303       0.93599026492913
H        -2.04974274872134      -1.31169645521059       2.00909688834169
H         2.89289213644151      -0.58986344500358       2.23806613503939
H         3.64309553093708      -1.77018450440114       1.10205359628929
H        -3.66204102511494      -0.81036094664033       0.14100127732707
H        -2.38965399991420      -1.16720999296604      -1.03709007615606
H         3.39742697851719      -0.15873340459981      -0.75884732405772
H         4.38922315603462       0.50344226269748       0.54766990350670
H         0.32007487327616      -0.44369298114174       2.20414791888569
H        -0.49993644402609      -3.21050669844621      -0.87674761528438
H         2.24442465265758      -2.69593930599317      -0.79569240781996
H        -2.28093283486995       1.04647423275045       1.07899415368101
H        -0.99810124110653       0.68539595417329      -0.08532701615661
H         1.42263015621272       1.12440716672683       0.09616714995470
H         2.42217079939250       1.79208976895068       1.39514961803985
H        -3.83991095431723       1.57138986288351      -0.80942545894203
H        -2.55232612922303       1.20685845913180      -1.97004702377463
H        -2.38678040381975       2.58226645116737      -0.86681686686982
H         2.90351763902002       2.20289521731417      -1.60395265103970
H         3.90188535884856       2.87771800824307      -0.30632369303742
H         2.21824420218297       3.39677344818343      -0.48912201089702
C         3.92495446185094      -5.67357788041866       1.35271001328799
C         3.32322043019440      -4.33708325969959       0.85849246097935
O         4.10596794253738      -3.51898851870756       0.34148669622645
O         2.08797620146183      -4.19435602077292       1.01364612050350
H         4.00006750778494      -6.34770567104913       0.49979605142375
H         4.92173119316591      -5.50293715767527       1.75490516828088
H         3.28277394523454      -6.12282024899030       2.10782560140457
