33
C9H10F6N2O4S2 optimized with DFTB in AMS.
N         2.13670539274596       0.39689605169132       0.66824939470260
C         3.01445885877062      -0.67805650652397       1.15531898046382
C         1.69007959471367       1.31816230090223       1.53581256932753
C         1.86128564445829       0.48655705241915      -0.64074542959534
C         2.21046522570563      -1.70958870815234       1.93320152712437
C         0.93184508580400       2.38328185887092       1.10012981785763
C         1.10490440756129       1.53410193838474      -1.12600604880385
C         0.63644886237424       2.50379996195733      -0.25149901016608
H         3.50132098251640      -1.12789818709048       0.28806241654520
H         3.78349126721368      -0.21450551129745       1.78088059446883
H         1.97469831638741       1.19783173139867       2.57281004196912
H         2.27646060346217      -0.27522349554364      -1.28750509239063
H         1.72828516631177      -1.25282289905211       2.79675403417272
H         2.88567740549398      -2.48907848841169       2.28277475613031
H         1.44760846479899      -2.15979956776815       1.29845438367362
H         0.60524534626311       3.12730801607682       1.81482929906050
H         0.91201994262036       1.59797039984394      -2.18906453952841
H         0.06538976776948       3.34803538697155      -0.61756548031189
N         5.47109158507190       1.28635655931248       1.16910358665725
S         5.95371363104697       2.30725617351598       2.32027202194539
S         4.78987030370401       1.93923573273111      -0.12443851705013
C         4.47367729958856       2.45525200402521       3.46402406649947
C         6.07142754493010       2.91617557450590      -1.09762257920983
O         6.91065261695004       1.61469686574839       3.13388221623348
O         6.23257117702659       3.64642809022352       1.87882162618486
O         3.71260202577011       2.87752936409224       0.14261731833294
O         4.45578398513671       0.82257331202588      -0.99511968315236
F         4.82919212196735       2.91821487151577       4.64544543944403
F         3.93744591319386       1.23280400263467       3.63701049396707
F         3.51510133751374       3.23058120192247       2.97095067338006
F         5.90764497990551       2.63948945035240      -2.38319113782566
F         7.28933546439695       2.56528428177619      -0.73594558644249
F         5.90367403652646       4.20833206604096      -0.91634597896411
