62
C18H36F3NO3S optimized with ForceField in AMS.
N        -0.52442178547866       1.78335468339271      -0.20220500046964
C        -1.38267160221761       2.32064215516853      -1.30816751418076
C        -0.21243999892056       2.90270806502683       0.74593028319087
C        -1.20368959167516       0.66860105105983       0.54617305450048
C         0.75638420399402       1.32198425291042      -0.84146876511451
C        -2.67238530118831       3.00562383789543      -0.82677012389113
C        -1.45938634945974       3.63634328336840       1.28296661691746
C        -2.34743066661745       4.13511668512867       0.14603782469154
C        -1.51083005493110      -0.60525076862016      -0.27725890883928
C         1.77383846340073       0.62860078532846       0.09956636358036
C        -2.20249326302666      -1.65510876147626       0.60115347133539
C         3.04949193325577       0.25753502568406      -0.66940474641812
C        -2.48843949243814      -2.93711445192361      -0.18822584565285
C         4.05555200406928      -0.46656590224230       0.23342321943177
C        -3.18852538067137      -3.97402918541524       0.69546751437579
C         5.33101671639998      -0.81859290550770      -0.54142921965503
C        -3.45660937786175      -5.26427765430591      -0.07231932947845
C         6.33639829890381      -1.54314595733342       0.34850746705080
H        -0.81531355305848       3.08010114085870      -1.89610361447972
H        -1.64879395351375       1.53107428645544      -2.04110907461378
H         0.34953952599390       2.53218567250002       1.63005126955174
H         0.43438547392846       3.66392429653615       0.25161775700634
H        -0.59552323652516       0.37598182998957       1.43034998375050
H        -2.16406134017530       1.00912567857617       0.97880160105056
H         0.53973601442610       0.62870776247112      -1.68502772251132
H         1.27608909706948       2.18855333677806      -1.31292644606629
H        -3.20036071936102       3.43376736399710      -1.70624275040538
H        -3.36736137863492       2.27627743234198      -0.36224659273589
H        -2.04259453663576       2.98345131470178       1.96506306465885
H        -1.12981081359898       4.50941610913488       1.88661551282846
H        -3.29138087916516       4.54573618017007       0.56495458605711
H        -1.82745403228634       4.95471727220064      -0.39717637186333
H        -2.18859435698813      -0.36897192071947      -1.12190060198963
H        -0.57750008668188      -1.04948839841246      -0.67870649776796
H         1.34441363263483      -0.30376976666248       0.51985980641537
H         2.05525568524061       1.30116871737711       0.93489288316371
H        -3.16089207200104      -1.23928733642020       0.98415968699163
H        -1.55089233164759      -1.89732853804483       1.46989336062562
H         3.51778503456428       1.18304222633736      -1.07150298624494
H         2.78525200571627      -0.40386593206830      -1.52410265295457
H        -3.13611646895674      -2.69846579106560      -1.06055693469919
H        -1.52974455377206      -3.35945782137135      -0.56253414704400
H         4.31653484876807       0.18758942864627       1.09442870852231
H         3.59368176241219      -1.39985083225497       0.62495174735812
H        -2.54738501910158      -4.20414390489449       1.57266012700582
H        -4.15527968276969      -3.56445395075696       1.06178404088902
H         5.07743997791848      -1.47323934549995      -1.40373020244399
H         5.80098030447127       0.11057041226554      -0.93152031785640
H        -3.96424530497470      -5.99369168865129       0.59346391207375
H        -2.50123149882307      -5.70895208816715      -0.42359687030989
H        -4.11226445800956      -5.06361396416984      -0.94629383770827
H         6.62698033257681      -0.89936023142836       1.20584083207090
H         5.90047641194016      -2.49048334708415       0.73120395948698
H         7.24722281654692      -1.78364135516518      -0.23949075827251
S        -1.45626825581708      -4.73677446475077       5.77285573312370
O        -1.43990349249837      -3.24879379512192       5.39238925427946
O        -2.60817557794932      -4.82557286417101       6.78485558292318
O        -0.20655747949667      -4.88630742998234       6.65311620766529
C        -1.56351647845706      -5.89223295625770       4.37791400250573
F        -0.48750807151171      -5.69715845449330       3.53296654467286
F        -2.73906728008339      -5.67135631609841       3.68743278568625
F        -1.54797274145041      -7.19004283846423       4.85139432862910
