53
C15H30F3NO3S optimized with DFTB in AMS.
N        -0.37715933327733       0.68348827498417       0.09443258906714
C         0.30672385793543       1.55757961117243       1.11954700066376
C        -0.59437903808277       1.56905299356159      -1.09897063201706
C         0.51332571103027      -0.46789187171667      -0.32887494296495
C        -1.70065286934926       0.18803380169239       0.62996896369441
C         0.66147992487828       2.87526426656600       0.42982183124938
C         0.54828735257083       2.56918277688901      -1.06130703232125
C         1.11404059473780      -1.30821164102770       0.79536443119408
C        -2.66133667437567      -0.33923259261552      -0.43444403523244
C         1.95055145947826      -2.43327401535270       0.17043645876072
C        -3.95181696066846      -0.81312271704271       0.24520716205584
C         2.56748886823303      -3.31393044250599       1.26034995407351
C        -4.96740701615973      -1.28450753621493      -0.79985237867231
C         3.25496927929191      -4.53512463381422       0.65360506216129
C        -6.22294988567308      -1.84571068338492      -0.13441467224859
H         1.20139925702992       1.05118141266743       1.47579491174142
H        -0.36437807857650       1.70658037119370       1.96533396216478
H        -1.54556351375318       2.08884772114525      -0.96853387234406
H        -0.62818127952734       0.96170542287605      -2.00225092176471
H         1.31701252271800      -0.03164437024927      -0.92822983151538
H        -0.09704582047561      -1.11030554902496      -0.96723588202835
H        -2.16366056980278       1.03375162770429       1.14620195098797
H        -1.48082963822490      -0.59784886799907       1.35526605560123
H         1.66291696212996       3.20543474300634       0.70828550395399
H        -0.05174776456373       3.65455389966637       0.70943704047003
H         0.31313022601454       3.45644878325362      -1.64950785456579
H         1.47241917417311       2.12900957274069      -1.44252790233836
H         0.32775591362492      -1.74296463385280       1.41313939039955
H         1.76461756069421      -0.70899930531099       1.44013992731434
H        -2.21347176618963      -1.17575906751687      -0.97310838434601
H        -2.90596797548425       0.44604727606166      -1.15610676946255
H         2.74095892097655      -1.99792778614041      -0.45241351144503
H         1.30988243159037      -3.04311457744667      -0.47080174037474
H        -4.37999382862763       0.00545488005531       0.83542691758469
H        -3.71660003462862      -1.63526023072245       0.92583275880307
H         1.77692994123207      -3.65067133004608       1.93687153625230
H         3.28892478714119      -2.72904049836070       1.84299693218599
H        -4.51066922969591      -2.06125033876984      -1.42059690101185
H        -5.23792448012943      -0.44696070978141      -1.45320373520904
H         3.72512423315013      -5.12574566450523       1.44037660205300
H         2.52306413253833      -5.15899930683260       0.14039129790412
H         4.02182364983708      -4.23414169805899      -0.06245894595143
H        -6.94630269392565      -2.14061671799779      -0.89436421055045
H        -5.97237909176336      -2.72061129524788       0.46535405523241
H        -6.68305823186326      -1.09690771820009       0.51245957519685
S        -1.31481680124940      -3.70096887867968       0.50458383447845
O        -1.13767301132720      -3.07711848663904      -0.80391748575090
O        -1.73578880577993      -2.75946893932688       1.53787702905009
O        -0.25174901310342      -4.59582966003124       0.89579146404683
C        -2.79843120199801      -4.78377890335718       0.27838186437519
F        -2.64411053344725      -5.60898442533357      -0.74883099174228
F        -3.87441578106702      -4.02705784334269       0.04030909612573
F        -3.03783619161585      -5.50413239938659       1.36529492221540
