46
C14H29NO2 optimized with ForceField in AMS.
N        -1.89873990309307       0.12892238026660      -0.06116268631467
C        -2.10676547409166      -1.09582739182824      -0.89271345844362
C        -3.02387438754003       0.12397830888002       0.92443974315472
C        -0.59404731392886       0.04271080674077       0.67282147051876
C        -3.48120394442437      -1.65634544473951      -0.58081108700978
C        -3.73472712688480      -1.21299673481056       0.83224086114392
C        -1.98375460700866       1.34558110831656      -0.93263699563915
C         0.66107038365184       0.04786100236484      -0.23467265982817
C        -1.74764139968732       2.67703503482118      -0.19582201843477
C         1.93138376006495      -0.16474980034350       0.59934795809253
C         3.18489516061209      -0.19608615611163      -0.28438613182835
C         4.44997006680794      -0.33976638936816       0.57070678570281
C         5.70545200489758      -0.38023978743868      -0.29544767894894
H        -1.37188276681618      -1.89765921498888      -0.64989822338153
H        -2.01669931875018      -0.90511101526339      -1.98690383319902
H        -3.78359707325915       0.90852470976365       0.70132310486198
H        -2.69059490024055       0.30048249549368       1.97294290064073
H        -0.57762646814374      -0.88709161910913       1.28802213246319
H        -0.50207416358312       0.87965927407368       1.40049744002898
H        -3.50924681400007      -2.76456034463676      -0.67137696370746
H        -4.23806855501096      -1.20663644361396      -1.26105322520086
H        -4.82296247218344      -1.12117273245821       1.04204399290406
H        -3.27685279896096      -1.93524649650436       1.54403207632761
H        -1.25800885860177       1.28313217038277      -1.77276535179833
H        -2.98765284599975       1.39560377729285      -1.41409171972377
H         0.59398141269300      -0.75279694054820      -1.00070727242041
H         0.75193709908486       1.02256378360663      -0.75683830552359
H        -1.98282614899539       3.51940213853004      -0.87962178376128
H        -2.39426061356860       2.77147663218959       0.70025747631892
H        -0.68631097113959       2.78300466030083       0.10758193092682
H         1.85393860046176      -1.12625964156012       1.15317585754821
H         2.02287406305432       0.66209827192294       1.33808742823199
H         3.24630001807773       0.74440187251973      -0.87538169067344
H         3.11615387447987      -1.05381528308464      -0.98963484859707
H         4.52655081250783       0.51987243337042       1.27169979288675
H         4.39497116005256      -1.27613775354883       1.16772586546745
H         5.79261883859864       0.55110448509125      -0.89442542373553
H         6.60117363675595      -0.46822510515598       0.35507420503078
H         5.67491096063666      -1.25566744190921      -0.97839204570092
C        11.06309512691981      -0.57151002010823      -0.68471402874302
C         9.71144185830582      -0.25493833296115      -1.24250027160548
O         9.42034660798733       0.89839057775856      -1.51582736018708
O         8.89787276465658      -1.14556032037979      -1.42747031268987
H        11.84707177276004      -0.26732722396762      -1.41024929113572
H        11.21319536409572      -0.01944450066086       0.26722057457461
H        11.16127403844933      -1.66079203508699      -0.48647433969299
