37
C13H21NO2 optimized with ADF in AMS.
N         2.08403162945934       0.16413268797983      -0.75029003330729
C        -1.73021385742456       0.54576885503758      -0.49944286011920
C        -0.34721244959484      -0.01548988723905      -0.17193737713739
C        -2.83174742163721      -0.04247571328401       0.37942627394484
C         0.71835640806406       0.57906910455368      -1.08628365232414
C        -4.21526153352019       0.53237040036083       0.08009390648981
C        -5.30413597496506      -0.05985544637058       0.97139935460083
C         2.42040027014053      -1.20396568986751      -0.92418535039017
C         3.06016059720786       1.10352866189313      -0.56757535433601
C         3.70231710102524      -1.56574941778959      -0.30071580233965
C         4.33703474522497       0.76652048260809      -0.23106846369947
C         4.63202751454111      -0.61529333890840      -0.02878049691013
H        -1.96320564897124       0.34091230211394      -1.56090167627634
H        -1.72214386927410       1.64598846205233      -0.38419928329650
H        -0.08442125642773       0.20165497361123       0.87836143700644
H        -0.37004156816066      -1.11035640527819      -0.29746246204234
H        -2.85482277827229      -1.13992124871050       0.24601568618715
H        -2.58568859215193       0.13716866317767       1.44298781239250
H         0.69389530706884       1.67792313029776      -1.02041134259261
H         0.50818114110855       0.30356105930572      -2.13408279923274
H        -4.18685025048891       1.63043139320989       0.20726832889800
H        -4.46151867029986       0.34880827931574      -0.98180180343489
H        -5.08811846797620       0.13444128993056       2.03479657180034
H        -6.29333549280630       0.36609411061454       0.74462939569010
H        -5.36794096029647      -1.15208131889950       0.83842764665745
H         1.57913055470761      -1.85056300609027      -0.66198134970523
H         2.73298537049955       2.13871787625427      -0.65996423331913
H         3.89048677452155      -2.62371109178052      -0.11536261080042
H         5.07922757206526       1.54335529715435      -0.06253317923426
H         5.59925813947754      -0.90266026473131       0.38926134436481
C         1.72497399647004      -2.34659769957430      -4.50628748026016
C         1.50650530986156      -2.10242282028460      -3.03439404185548
O         2.56381567232773      -1.48045222472674      -2.47726411829941
O         0.47824963358947      -2.41720370690654      -2.44646888632354
H         1.61715017159634      -1.39390866106876      -5.04750451603046
H         2.73989300802738      -2.71996422820452      -4.69623597212078
H         0.97137364658301      -3.05409601385625      -4.87191817364452
