39
C9H16F6N2O4S2 optimized with ADF in AMS.
N         1.46934054809149      -0.27447054948743       0.39085591795335
C         1.34062366886505      -1.30459004024256      -0.72360439669359
C         0.40957271272215       0.73852172846494       0.01225009448482
C         1.08788606125054      -0.48324545542711      -1.98877129976796
C         0.52483839410719       0.87925536562035      -1.50336203529911
C         1.17750957513363      -0.86512400023547       1.75179848238142
C         2.82417040154161       0.37268541941060       0.37455084359098
C         2.13996870709570      -1.95234947630199       2.18391502056348
H         0.47237328170573      -1.92479515221347      -0.45182723886928
H         2.25216700160312      -1.91610605583142      -0.75396223419495
H         0.56912825006407       1.66152938193729       0.58657530754752
H        -0.55386504607400       0.29120815388078       0.30063764254052
H         0.38354507699494      -1.01374571661130      -2.64460030491561
H         2.02833610736080      -0.35758669761814      -2.54246148639301
H         1.20107528043177       1.70355308595130      -1.77375933864919
H        -0.45882969062362       1.11085927686651      -1.93611123931764
H         1.18301520456587      -0.01862746456969       2.45729650628012
H         0.14866178803223      -1.25249622826304       1.68780984447908
H         3.58209489251531      -0.38316120545068       0.60053922847159
H         3.02053717534018       0.77259485671415      -0.62434484118016
H         2.83167832711829       1.17609593277161       1.12291238778475
H         1.78054930508944      -2.35453950867744       3.14307829136599
H         2.18807845866233      -2.77706964155862       1.46056411408146
H         3.16044530701833      -1.57961984180418       2.33746576690841
N         6.21820412473432      -1.10338512226276      -0.65798021684018
S         7.10097270414171       0.05697840913691      -1.38488388305863
S         4.98423383782981      -1.82714443228859      -1.35291167596665
C         6.16129120319712       1.63732869433829      -0.92954957418434
C         5.66598430924311      -3.24821691390375      -2.39336374086655
O         8.33426093787189       0.18787916586952      -0.62906489646817
O         7.09877041004475       0.03835939202114      -2.83959283555707
O         4.19514126233242      -1.04033506945931      -2.30903790655786
O         4.24565589170955      -2.53315649263599      -0.29172579078708
F         6.94958203300818       2.71121505562161      -1.15906342270698
F         5.80356402916853       1.64323781061366       0.38648556317625
F         5.02391001932870       1.78706209884633      -1.66340509589667
F         4.62251820000308      -4.02748210828157      -2.78682544016805
F         6.51968377699675      -4.00701671852360      -1.67210712913009
F         6.29755373617793      -2.79142912791686      -3.49044447064094
