38
C10H22BF4N optimized with DFTB in AMS.
N        -0.80426040972297      -0.18213927498797      -0.33981415902238
C        -1.82563468633206      -0.43768307170999      -1.41012757496778
C        -1.12370023181326       1.21490139118382       0.11567701352220
C         0.56839343557382      -0.25811861919996      -0.93814587919423
C        -3.10267025033897       0.24200067686536      -0.93356838736421
C        -2.64014406618251       1.35441280071378       0.01768203695728
C        -0.97679643982374      -1.11752616379254       0.81824855264131
C         1.68944203836026       0.09377985635431       0.03556849403230
C        -0.63651679148318      -2.57171596101949       0.52344637025842
C         2.95767583225820       0.41525982850192      -0.76565346263719
C         4.12294453435866       0.76120200513440       0.15766375657119
H        -1.93269015171606      -1.50928143495870      -1.57355783109516
H        -1.45954893995823       0.03762951047866      -2.32260504168899
H        -0.74533323363396       1.36675875228165       1.12670121224093
H        -0.62763262855895       1.90129643083097      -0.57280717656707
H         0.69825455333741      -1.26546127906661      -1.33932785603158
H         0.57735987442203       0.44579606636789      -1.77249577942559
H        -3.63240018504185       0.65785832605202      -1.79160311034522
H        -3.76351075874755      -0.46331299975223      -0.42335101113703
H        -3.11308930755547       1.25537260480812       0.99755989597350
H        -2.88155027820853       2.33591178861820      -0.39216441706583
H        -0.33934734935771      -0.75064277047534       1.62643069471373
H        -2.01847273865637      -1.03711085849398       1.13771302470114
H         1.41598050634858       0.97165675330041       0.62632137411495
H         1.88123726494111      -0.73397413917481       0.72617704667080
H        -0.89466790576305      -3.15843876425101       1.40496593162382
H         0.42604537894411      -2.70264081660807       0.32735907481849
H        -1.20237135862482      -2.95949845638521      -0.32161100367028
H         3.22392474373103      -0.44538575296633      -1.38779811103614
H         2.74837079840362       1.26092202416655      -1.42801936412748
H         4.35262516585646      -0.07586949633046       0.81909161710029
H         3.88061483242424       1.63134763598071       0.76908545657299
H         5.00868772666414       0.98929861449532      -0.43482900848908
B        -0.42427401146521       2.29237596068271      -3.11146790032257
F        -0.22190291120161       0.97336952271671      -3.59477998759126
F        -0.32906489850105       3.22133776463317      -4.10080076846646
F         0.54391247241356       2.50541505582426      -2.08976831478655
F        -1.69750823505015       2.30924972868173      -2.48571539308122
