54
C14H26F6N2O4S2 optimized with ForceField in AMS.
N        -0.71212439884913       0.31817270706343      -0.15548528438672
C        -1.27909736901289      -0.44276896489414      -1.31598089657610
C        -1.83957414724727       0.72498192273196       0.74495676894641
C         0.27838176992057      -0.50108701611567       0.62627400798007
C        -0.08027714006285       1.55675932718740      -0.72654848853876
C        -2.12971430524864      -1.65982210776863      -0.91474651216537
C        -2.72491296890005      -0.45158176468431       1.20506580206359
C        -3.26497889331366      -1.23615371304145       0.01274436539670
C         1.55621627552745      -0.92475369301488      -0.13564459050195
C         0.66021982266861       2.46668662499742       0.28412104797961
C         2.47732107359634      -1.73878017194452       0.78292972315510
C         1.22437123339122       3.70038675762696      -0.41752825670161
C         3.75365174346399      -2.15784883991718       0.06015887782847
H        -0.48291359918320      -0.77506258162381      -2.01386490247011
H        -1.93760406353856       0.22352784950499      -1.92192172900457
H        -2.50169512534949       1.46095606883449       0.23259648937145
H        -1.45784677274553       1.22216589809765       1.66233155926485
H        -0.18759857949693      -1.43152413471212       1.00259578849469
H         0.58264985792245       0.04569825962955       1.54570259327878
H        -0.85795664274450       2.18018272665423      -1.22648316807796
H         0.63376821478713       1.28742908570193      -1.53675764465816
H        -1.50807365068761      -2.44617580838772      -0.43954657751627
H        -2.56696702047679      -2.10994538627771      -1.83214114551375
H        -3.57836845248478      -0.05080397893765       1.78941726413078
H        -2.17110368808587      -1.12722595956255       1.88909668294615
H        -3.98585519731155      -0.60327792375457      -0.54963142923952
H        -3.80707783391122      -2.13693212764830       0.37303294501102
H         2.11708009286328      -0.03666473969058      -0.49076778392408
H         1.29519070048852      -1.55762273323683      -1.00779600788250
H        -0.02561469968974       2.81407548917345       1.08265009482032
H         1.51086653528597       1.93207234819273       0.75321048485262
H         1.94714409483453      -2.65210648692907       1.13184617693573
H         2.75227574303614      -1.13228764617016       1.67349760371500
H         1.75915434567624       4.33798089602889       0.31760495244278
H         1.94073246636695       3.39944832006123      -1.21176523907377
H         0.40399642700991       4.29589224531902      -0.87202792974911
H         4.31771435383734      -1.26204081593095      -0.27610777688745
H         3.50865108795495      -2.79048551554134      -0.81934495949040
H         4.39582514606446      -2.74329333990676       0.75129354648595
N        -7.98615837471466       2.35355063590589       0.05290931322524
S        -8.46573476576022       1.18147451927920       1.09328790942415
S        -7.12328538365324       2.04004020687532      -1.30511320448553
C        -7.24106980651479       0.99901304079371       2.37186407456408
C        -8.22825020328799       2.00473088661995      -2.70065629160446
O        -9.76821192852920       1.58556799745426       1.72342179657566
O        -8.63883166225441      -0.12858935366614       0.37539010498874
O        -6.41153110945555       0.71997119020848      -1.19570706473784
O        -6.11788041321261       3.13694680659889      -1.51238613432867
F        -7.64792195984995       0.02937038907554       3.26848576291924
F        -7.08293898892800       2.20051217933679       3.03604762738917
F        -6.03700273344454       0.62578939537296       1.80968714132428
F        -7.51269305857924       1.72550755501585      -3.84941266254237
F        -8.84512409355002       3.23434865473291      -2.83285635408829
F        -9.18841276902137       1.02929152708193      -2.51045987666533
