34
C10H18F3NO2 optimized with ForceField in AMS.
N         0.42249175552147       0.23424602951379       0.03968167424160
C        -0.52915946516246       1.27697986619224      -0.45996359700797
C        -0.09331180999875      -1.13327853696746      -0.27605243153144
C        -1.98621814403073       1.07744397710302      -0.00330784994726
C        -1.53366885793975      -1.37614451172931       0.20528176108775
C         1.71987493647025       0.46313925447578      -0.67798768525182
C        -2.48083511579578      -0.32117130354733      -0.35360780946931
C         0.63209344015806       0.39880476740477       1.50452271112736
C         2.87371568977166      -0.47985226618498      -0.29162645811961
H        -0.53907917836687       1.28819379956192      -1.57506754007116
H        -0.20046301087427       2.29156829283503      -0.13778457986597
H         0.54001835793981      -1.91545828327014       0.19536623974085
H        -0.06626442919084      -1.31098358777991      -1.37585898212734
H        -2.62951694626965       1.82267482899429      -0.51943510081803
H        -2.09473215604129       1.26241416124260       1.08519516804833
H        -1.57858342620448      -1.38163305268392       1.31486980127439
H        -1.86672115182563      -2.37792819798284      -0.14277049149937
H         1.57386637491373       0.36294518382944      -1.77822148784202
H         2.07515539100792       1.50560202640117      -0.50653616621186
H        -3.49594268107564      -0.47248640790720       0.07237908165662
H        -2.55002216636943      -0.42808547851746      -1.45872617148609
H        -0.31999719540078       0.39833486445248       2.06976334346540
H         1.23603495469476      -0.43268673016583       1.92623559209226
H         1.14876019536244       1.35834840307180       1.73006219307451
H         3.75652970563212      -0.23290657190353      -0.91800151293109
H         3.17412906283170      -0.34462165912935       0.76692325661703
H         2.62481867448112      -1.54141309064142      -0.48770542946627
C         6.92383252368866      -1.07680987818583       1.12485809820500
O         6.15098875336589      -0.35588479381272       0.51442839293258
O         7.46447271942630      -2.00657205822272       0.54802971163512
C         7.21693978913424      -0.82317581965620       2.57340459230324
F         6.91088277318949      -1.95142456572264       3.31197393159343
F         6.46529823740396       0.24042256816451       3.04261354916902
F         8.55922085215278      -0.52913792873205       2.72643161418214
