60
C18H36F3NO2 optimized with ADF in AMS.
N         0.06556529188689      -0.02130600150604       0.00615369943066
C         0.89464008388957      -1.10031988342744       0.68039674431475
C        -0.74269686223429       0.68782039094798       1.08496047562179
C        -0.82393323390410      -0.65229933488969      -1.04160191279876
C         0.96827054564719       1.01102354021450      -0.66795425601448
C         1.92116744254902      -0.59626007336059       1.67759839367706
C        -1.74863772573935       1.71217525120998       0.59670590097802
C        -1.86184021745386      -1.63972964188619      -0.53390499044495
C         2.03895864040382       0.46042069081621      -1.59265730085698
C         2.76709056852227      -1.76243103279867       2.19100047444267
C        -2.31253228132674       2.45687444802208       1.81270507722609
C        -2.70496714872176      -2.16082192258349      -1.70080868895056
C         2.93188200102132       1.62236858442202      -2.04463490696901
C         3.83596004383278      -1.28760755300225       3.17179287187070
C        -3.31110459490397       3.53844972549239       1.41532628079238
C        -3.76107737351033      -3.16679311495430      -1.25231613135198
C         4.05650983244043       1.16360925822733      -2.96681908645239
H         1.37816102620849      -1.66863381561296      -0.12882295526621
H         0.17558136408312      -1.76761616039939       1.17653537560030
H         0.00202912183830       1.22634309628934       1.69516103828096
H        -1.23096027418098      -0.10029977540487       1.67764779145608
H        -0.15228984687229      -1.14200190164522      -1.76142321179717
H        -1.31912549647825       0.18165393753418      -1.56080320499954
H         1.42857639295802       1.60154137139633       0.14263813536110
H         0.29150667784841       1.67349598429714      -1.22551338574604
H         1.42352322793945      -0.10765006831916       2.53085860821085
H         2.57577531424376       0.17436901311068       1.23857352371966
H        -2.57211068785379       1.25452910380641       0.01946102132488
H        -1.24964926353482       2.45562409851500      -0.04558076665320
H        -2.52593308223559      -1.15974041109830       0.20353580826449
H        -1.38047055443374      -2.49692798419073      -0.03459518164755
H         1.60951227290242      -0.04596969289092      -2.47629839387779
H         2.67785247341736      -0.26771189561363      -1.06670767933351
H         3.24854944707853      -2.27374764003649       1.33604501728947
H         2.11630804858214      -2.51244102688960       2.67843232381923
H        -1.46379338148979       2.90738455458616       2.35492746729612
H        -2.79232382418826       1.73395317053516       2.49774880966135
H        -2.04097614035899      -2.62858056477043      -2.44984999447507
H        -3.19425208543156      -1.30791239027051      -2.20499565503149
H         3.34460085731521       2.10166689068679      -1.14005896968424
H         2.31350070100508       2.38160448866867      -2.55697985398706
H         3.37663195494247      -0.78546137426833       4.03767092724966
H         4.50681579786213      -0.55907328179869       2.69143253078728
H         4.43920820260646      -2.12967266854835       3.54161249089827
H        -4.18019224262763       3.11525752238933       0.88541773962768
H        -2.83632602342580       4.27882370634476       0.75201483789643
H        -3.68230617915005       4.07463056587054       2.30085455183322
H        -4.45522681470538      -2.71476135823831      -0.52621302618084
H        -3.29496520285441      -4.04235834980890      -0.77267886839196
H        -4.35300772763653      -3.52587850310208      -2.10666365631685
H         3.66301595643867       0.71347928135866      -3.89334992815605
H         4.69120379051104       0.41262208622620      -2.46896960706533
H         4.70071435820921       2.00900743235335      -3.24975966537237
C         2.31769286022854       2.87363446581870       2.12265353848216
O         3.17764320461296       2.36861772954247       1.36466641310952
O         1.05882362000542       2.82436190001768       2.07471830860056
C         2.85856332630178       3.64933673913858       3.37189178615989
F         4.17770409202095       3.98075045221877       3.28853319834238
F         2.71609515822879       2.86821009463834       4.50113210544897
F         2.17074796557030       4.80846796631980       3.60739030264673
