42
C10H18F6N2O4S2 optimized with ADF in AMS.
N         1.33715183817804       0.34221927210019      -0.33099935810373
C        -0.15835573313102       0.56555971576313      -0.46381324186373
C         1.60507698281468      -0.91141726112788       0.49789657129323
C        -0.89399021830376       0.58597135623179       0.86587991547891
C         0.86664032182335      -0.90853621086998       1.82439451517430
C         1.87134413321845       0.15150336640838      -1.74547717111647
C        -0.63411170048259      -0.70001025064923       1.64881373917735
C         1.99190429971649       1.53210989224455       0.30380573299230
C         3.36574736369408      -0.04540766286610      -1.86899221594822
H        -0.52821484553445      -0.26611009519238      -1.08454292991838
H        -0.28646567102512       1.50323470343896      -1.02672686140171
H         2.68765954518593      -0.96916358659669       0.65949409178121
H         1.28370779795115      -1.75686549441836      -0.13094473874112
H        -1.96621111773002       0.71066641576345       0.63962599917734
H        -0.60045196764439       1.46690562157202       1.46110453930772
H         1.29393005171503      -0.14622494215466       2.49435207292309
H         1.09564577035001      -1.87366801984622       2.30148262469706
H         1.32747930009837      -0.72017964871890      -2.14117577511984
H         1.53933810161396       1.04255209892249      -2.30252627327803
H        -1.13702949943785      -0.66066583441523       2.62792500767670
H        -1.06849323392685      -1.55531041568760       1.09777406973069
H         1.50821159784471       1.73697972744082       1.26272572409551
H         3.04880691934832       1.29696795856985       0.48228117353836
H         1.87456598274015       2.39178181578081      -0.36941140653955
H         3.58648625709338      -0.17854669664539      -2.93920439992179
H         3.94278162495913       0.81594963416984      -1.51027990445019
H         3.71843449137672      -0.93722780696894      -1.33922728963281
N         6.02893249062866      -1.60602427106799       2.39175363269568
S         4.95050911023497      -2.78846825514305       2.22327452209242
S         5.67917027221064      -0.08826876269844       2.03277359537131
C         5.09982126796315      -3.33629168852605       0.38061810971644
C         4.71251665912687       0.59333597086834       3.55817208113811
O         5.42687777967902      -3.94777255424813       2.95507864763019
O         3.54947873140335      -2.36959724073625       2.34748925903360
O         4.72818655618842       0.08682930651141       0.91794303212279
O         6.90455970154208       0.69067949418337       2.03619850966280
F         5.32176384065044      -4.66502490876385       0.31089793923914
F         6.09436775504500      -2.69525721487072      -0.27043568391141
F         3.93142370431487      -3.08072859025637      -0.28901987732779
F         3.40679135529151       0.84468823657645       3.23270586424157
F         5.25982559261781       1.76334029910955       3.95561295021385
F         4.72479048129735      -0.26630480658699       4.59508023607308
