64
C18H26F18NP optimized with ForceField in AMS.
N         0.99115378448119      -0.30901021284833      -0.00303879696362
C         2.06913954513267       0.07629323646760      -0.96590259336179
C         1.65289074110893      -1.23821198413777       0.96337734697269
C         0.49637159680455       0.90141695357810       0.73102667737467
C        -0.10423481471289      -1.02132855356013      -0.73904479509817
C         3.27554098324394      -0.80566354273637      -0.70683805091447
C         3.15122618743752      -1.15576752984036       0.74796689450544
C        -0.24414516584444       1.93192588106311      -0.15528669285447
C        -1.29638255129769      -1.45656136812680       0.14718309108542
C        -0.55726173441009       3.20694733607036       0.63676867972463
C        -2.28814799976039      -2.30937930029633      -0.65342773724975
C        -1.29733950249140       4.22532739732894      -0.22578162842730
C        -3.47194849037100      -2.73724681808426       0.20950664184814
H         2.40539358153597       1.12951914315030      -0.82435455783716
H         1.76025811892652      -0.01288576270607      -2.03277233811508
H         1.36200674725546      -2.30049420088273       0.79135359908816
H         1.41030922449977      -1.01487424323477       2.02763499403957
H        -0.18285733341521       0.60500082703230       1.56096246752866
H         1.35589810464871       1.41246238517532       1.22468734055849
H        -0.49586937009399      -0.38737314740647      -1.56530101622432
H         0.31244057790768      -1.92722021971987      -1.23832016526183
H         3.20921831915474      -1.72839409370983      -1.32504388352705
H         4.23008460934534      -0.27948359296515      -0.92167346031083
H         3.57902252444628      -0.34012902097139       1.37209626263200
H         3.65992902071550      -2.11594640357776       0.98361872988726
H         0.36999171258764       2.19925359708449      -1.04056227003666
H        -1.20364771000079       1.50482595071787      -0.51397099407771
H        -0.93955393778965      -2.04300242275149       1.01969969995356
H        -1.83649634915207      -0.56381263612739       0.52489654057905
H         0.38773604543945       3.66538397904737       1.00099107551632
H        -1.18901200488312       2.95455672743318       1.51630116737188
H        -2.66818016027533      -1.72555394853861      -1.52009384090740
H        -1.77787528919726      -3.21919598619091      -1.03768809686937
H        -2.25524429175231       3.79841032134079      -0.59217895997201
H        -0.67151523382356       4.52197836904166      -1.09418562102177
H        -1.52014470106920       5.13062469111673       0.37735248663468
H        -4.01103821210452      -1.84613837051071       0.59596602504129
H        -3.12261676931759      -3.35448810786620       1.06435262516615
H        -4.17669682933815      -3.34128476299525      -0.40004515833139
P         8.15345581535366       1.37591344903231       1.59742195152495
F         7.63958973431323       1.60322006237228       3.22441401311589
F         9.00392381973253       2.74984329281611       0.99756989451209
F         7.61721175108168      -0.19386990203200       2.05390929453367
C         9.84489633143417       1.26311401271071       2.53945320756238
C         6.54778565052468       2.45337061133632       1.51389553456387
C         8.14318401693152       0.45272697784296      -0.10059448260664
C         9.99100894091425       0.16394602096102       3.62697039836462
C         6.13384017482127       2.99410884453385       0.12925099973819
C         9.27265188149841      -0.56510413165296      -0.35223298866078
F        10.08723140623082       2.47362631834843       3.17760229224884
F        10.86855797536673       1.08263486819579       1.63099256472814
F         6.69455293710649       3.57409499670972       2.32641531823707
F         5.48132160097857       1.70593991168971       1.99320997678467
F         8.24712113547225       1.38829640313637      -1.11430973389447
F         6.93330779370467      -0.20603231409967      -0.27073220658073
F        11.30463184182664       0.14388819873659       4.06180007829518
F         9.69020392296837      -1.09346924217885       3.14986101927963
F         9.19355166739880       0.42811715199707       4.72598569768446
F         5.06979445863535       3.86398146649516       0.29349652633645
F         7.16218627431969       3.69625138608259      -0.47109622381234
F         5.70950419921210       1.98033274813193      -0.70511896649701
F        10.47140469075775       0.08096154112478      -0.58743754776057
F         8.96938179122268      -1.29945034202256      -1.48530777064246
F         9.41720375432248      -1.44895422593082       0.69359954309898
