34
C10H18F3NO2 optimized with ADF in AMS.
N         0.79305091993353      -0.00232085660461       0.37843451505230
C        -0.00255997230086       1.29772997850687       0.38158359882834
C         0.10367837824583      -1.02166825957283      -0.49460939764841
C        -1.45861990488708       1.09872204777432       0.76409504547574
C        -1.35117984837772      -1.24779562087536      -0.11169442911961
C         2.16925161089803       0.34345608937697      -0.19279373871023
C        -2.14161157054837       0.05905318594991      -0.12283293139138
C         0.95033609351025      -0.50342813913776       1.78600683537322
C         3.14533900942534      -0.80962807879110      -0.26760796786513
H         0.07035827308562       1.68284078669566      -0.64868783181730
H         0.53648875639837       1.97465059277653       1.06470765683199
H         0.68500261948857      -1.95083737960541      -0.42784107400825
H         0.17484676787324      -0.63636629284080      -1.52533120924666
H        -1.95300819357815       2.07865218391302       0.66553143533829
H        -1.54230847425386       0.81966101275027       1.82751987682839
H        -1.41443702008218      -1.72734967916462       0.87954296265833
H        -1.77277427591802      -1.96748502728991      -0.83218493327103
H         1.96604816123593       0.76332211319005      -1.19060780035199
H         2.54507633562072       1.13414208613313       0.48422927072803
H        -3.17557767822629      -0.11847606770078       0.21254256408333
H        -2.19952330193144       0.44080821222492      -1.15936925068792
H        -0.03826995450864      -0.68204362699739       2.21827375239172
H         1.51782560038342      -1.43958200320686       1.75980985624992
H         1.49848508963449       0.28315458114799       2.33543444922132
H         4.07226849251321      -0.40798565172495      -0.70448853568939
H         3.41649692895728      -1.18458944774559       0.72814696622984
H         2.80672078772516      -1.63743801278444      -0.90808812362472
C         3.32365024448907       2.31740786068744       2.98963612596949
O         2.31991399240610       2.08404561420004       2.24042229018777
O         3.53630518597376       3.19980256138292       3.82318798873777
C         4.47841503313086       1.26484759844179       2.78232656633787
F         4.95261609324632       1.27375975811674       1.48214334559220
F         4.03569893003437      -0.03382859027763       3.00672618971906
F         5.55057308560311       1.44683427705146       3.58715990329709
