40
C12H25NO2 optimized with ADF in AMS.
N        -0.61212206481448      -0.35303577002373       0.28682505956503
C        -1.69327369874146      -1.33172511596908      -0.15615670286957
C        -1.41902050458320       0.85995420545846       0.68098897988059
C        -2.85315986752265      -1.10834649663534       0.81195592915800
C        -2.65027167530937       0.31339325160077       1.39862567473090
C         0.32970414897501      -0.05417320506404      -0.85938302590615
C         0.11836209337556      -0.90643657574019       1.49680030989332
C         1.39398554512055       0.97743160010454      -0.54159215716799
C         1.08656878974703      -2.03363108104657       1.17044950845303
C         2.25889716031444       1.19561299550346      -1.78511063359958
C         1.44427435007080      -2.82067868881907       2.42898894457780
H        -1.90597550246725      -1.09463051573556      -1.21485676653980
H        -1.25455075147174      -2.33611876381937      -0.18627659920584
H        -0.80113265945788       1.53998774666267       1.28032497898677
H        -1.69202830694118       1.35278924420211      -0.26365444665448
H        -3.80635565901358      -1.19795022566266       0.27140568129349
H        -2.86712065044925      -1.86000441815746       1.61599010304912
H        -2.48706639241016       0.27510187982466       2.48602327389018
H        -3.51333605209211       0.97118636415390       1.22273653708604
H         0.72272894276455      -1.04079209699441      -1.17587388015409
H        -0.31531393573413       0.25983066308153      -1.69396164250007
H         0.63162687449521      -0.05901841934870       1.97934522610363
H        -0.66478612123349      -1.25949834742999       2.18523172652166
H         0.94114169212025       1.93889034989671      -0.23983103614183
H         2.03459761063528       0.64380522339590       0.29244695550336
H         2.00296357898098      -1.61647344738701       0.72269387844899
H         0.66036217951161      -2.69720697603235       0.39946647707412
H         2.74438025056199       0.25677477173497      -2.09041469515875
H         1.64555316135111       1.54065866340824      -2.63127428294841
H         3.03974521489968       1.94686852385790      -1.59694362399405
H         1.89541833140371      -2.17896544094008       3.20304420880764
H         0.55374773989665      -3.30287523877295       2.86350292920458
H         2.16728152279964      -3.61343912121018       2.18769582365033
C        -0.16819506558810      -3.58835641255879      -4.04669468313903
C        -0.35806721347288      -2.60167947360236      -2.88356564934915
O        -1.13390271105646      -1.61760443676925      -3.07141360713045
O         0.29236447038487      -2.87658543292832      -1.81839240438767
H        -0.58142905314906      -4.56894996602404      -3.76091723385686
H        -0.66705553592040      -3.23745754781532      -4.96010391154572
H         0.90538304061992      -3.73971426819901      -4.23697193812908
