29
C9H16N2O2 optimized with ADF in AMS.
N        -0.50486621765633      -0.39385353736908      -0.60094688904740
N        -2.30900429111532       0.74481578309330      -0.20107148435188
C         0.86717819776063      -0.73082530980651      -0.97618358365984
C         1.79361488788974      -0.73453466412806       0.23812486367183
C        -1.09900054790476       0.80079984002012      -0.77190109624321
C        -1.36940519712643      -1.21172381041871       0.10562416442773
C        -2.51562956588360      -0.50474413272242       0.35465195318090
C         1.88729623048451       0.62834711336716       0.91458818992732
C        -3.32326340195320       1.79833266851947      -0.18972464985114
H         1.19615927572319       0.01221256720462      -1.71989448255304
H         0.84308139917853      -1.71435693140496      -1.47065310220710
H         1.43643460691554      -1.49258631195377       0.95785583061508
H         2.78832413644330      -1.06827352263130      -0.10462628698409
H        -0.67151126966161       1.65127924730152      -1.28745722198742
H        -1.10538972963068      -2.23376376335396       0.35135231510285
H        -3.54853988093913      -0.76206240268865       0.79581778032883
H         0.89968305727889       0.96807026504217       1.26443695368370
H         2.28858995691663       1.38719229322144       0.22242278999306
H         2.55261882715249       0.58686576310964       1.78941910902878
H        -3.05840426931988       2.55669925534619      -0.93661622412912
H        -4.29194416471054       1.28472689734088      -0.42939184665962
H        -3.36062850609937       2.24089530080026       0.81493664006523
C        -7.28240063115371      -1.25259481610299       0.37676913466889
C        -5.85842486837780      -0.69967184587837       0.28060923267787
O        -5.58163385541063       0.03904258611639      -0.71012829983455
O        -5.06935987350440      -1.04085921570640       1.22490194266703
H        -7.89598549608611      -0.91911492262254      -0.47013321407903
H        -7.24858788005240      -2.35239918863122       0.40265456372580
H        -7.74121492045755      -0.92203454516422       1.32104554142257
