51
C13H24F6N2O4S2 optimized with ADF in AMS.
N         0.10986810456648       1.17737669109278      -0.22035012620295
C        -0.07019242733947       2.35449746793980       0.72774923081579
C        -0.95267853946104       1.26293730275452      -1.30680858152177
C         0.01031611823637      -0.10982019768848       0.56790332200705
C         1.45669804968543       1.31174847617203      -0.91901628727087
C        -1.47578374766949       2.46396054011560       1.29518229743526
C        -2.36640971402366       1.32127643037030      -0.75461713642831
C        -2.52605330543123       2.51509893601752       0.18687003801527
C         0.30154774073924      -1.38913421779040      -0.19838309864684
C         2.68180696639101       1.22229126119147      -0.02530061427843
C         0.09935015250208      -2.59473695883156       0.72189488079946
C         3.93316886270169       1.21670726605668      -0.90540749186697
H         0.68302101540190       2.23786481212352       1.51737480147941
H         0.18611247647117       3.24365511658498       0.13603254627350
H        -0.73438181923411       2.19174467961308      -1.85939851343946
H        -0.79373413130542       0.40421498263075      -1.97401810099239
H         0.70578034370853      -0.00274695333513       1.41329366588378
H        -1.00429955803458      -0.14493413518439       0.98405141184312
H         1.47292162652303       0.52535630785524      -1.68982385285783
H         1.42974233804635       2.29415265132020      -1.41920558457071
H        -1.68559415698218       1.64076099810559       2.00033361466799
H        -1.49624416415207       3.39533881358099       1.88434387605116
H        -3.04033329361235       1.42117338639629      -1.62166260181527
H        -2.64229280930715       0.37646983926929      -0.25335046743239
H        -3.53881185309177       2.53488081897398       0.61910028952097
H        -2.39497646446111       3.44491452721446      -0.39204367899559
H        -0.36602920662792      -1.48089411295706      -1.07076359626913
H         1.33701193456693      -1.38627938346517      -0.57460076721599
H         2.72565602511665       2.09694831140157       0.64218851908046
H         2.66426156774025       0.31037978579188       0.59502642650398
H         0.32591897183742      -3.53133842799466       0.19347543532333
H        -0.94013478559871      -2.65314052256189       1.08098773535253
H         0.75948571817919      -2.53709504835044       1.60168458989461
H         4.83955994329724       1.19183339231685      -0.28507208004848
H         3.97255407536897       2.13014904209140      -1.51578156595759
H         3.94752324005859       0.33771723219883      -1.56986293407068
N         1.14438550765893       4.73127540242813      -1.35433175637813
S         2.40812915035585       5.49041151916594      -0.69251055056533
S        -0.30471300659495       5.37065063051380      -1.66146977999042
C         1.96705462474139       5.89323567006299       1.11385221747236
C        -0.11581071921176       6.84048484632495      -2.85282132290235
O         3.44063739335767       4.46748092162149      -0.54551923157354
O         2.71486691018836       6.79006746956499      -1.26868576275785
O        -0.97441308169953       5.92961753738277      -0.48910468415281
O        -1.00961118304789       4.35853054013678      -2.45566109309717
F         3.11090692740930       6.17293875972288       1.78350646605452
F         1.37850087427746       4.82167297011005       1.72773842761787
F         1.13907431738341       6.94764666566253       1.21796995113329
F        -1.30713547620714       7.03048210002673      -3.47178001653186
F         0.82259330322926       6.58451293567829      -3.78793794104750
F         0.20306185075335       7.96517240307727      -2.18728930954707
