46
C14H29NO2 optimized with ADF in AMS.
N         0.28889404967627       0.19626360093362      -0.15840316856585
C        -0.87825426743250      -0.04570937305997      -1.07888727345039
C        -0.19743688931778       0.87171149184656       1.11488201077917
C         1.00173175035140      -1.09307156572111       0.22910678794728
C         1.32197448165561       1.08649063817086      -0.85782347020286
C        -1.99490062915438      -0.83977405291932      -0.41710180282787
C        -1.29385476387241       0.08484911494692       1.80994888111796
C        -2.47342211039209      -0.17155648414140       0.87267782419806
C         1.55211452081659      -1.90656206093439      -0.93007750418231
C         1.06570264617204       2.58142695164169      -0.80738636793277
C         2.59375829003862      -2.89521646981116      -0.39431853597910
C         2.08980269625983       3.27719645809763      -1.70570066870392
C         3.22040260862737      -3.73434806988152      -1.50322635805007
H        -0.48914953356815      -0.55870507072042      -1.97019370314722
H        -1.23849910104207       0.95053511904106      -1.38121612316457
H        -0.60684953648430       1.84169394452278       0.79729279860189
H         0.71941717009736       1.05393373229794       1.71833592441008
H         0.30603184588834      -1.69161284838229       0.82859306189125
H         1.85317469673700      -0.74567854870157       0.84686076818030
H         1.34937448124535       0.73745462490710      -1.90127986546921
H         2.28332634212003       0.85487926081431      -0.35549886770232
H        -1.65413187879992      -1.86809073768215      -0.20974728445724
H        -2.82043269568240      -0.92285966075762      -1.14305205122635
H        -1.61244935542740       0.68452484319624       2.67805667836369
H        -0.90960702856614      -0.86325249638500       2.21977291392228
H        -2.95334142104554       0.79282817466684       0.62278682295101
H        -3.23746971033595      -0.79481789819170       1.36371996785012
H         2.06250110805497      -1.24980138543352      -1.65240970155042
H         0.75756499918831      -2.45021275343019      -1.47406591680435
H         0.04532029919085       2.84635773167878      -1.13897619354546
H         1.20790210712908       2.92990071371532       0.22716592425129
H         2.12757681535041      -3.55687845140773       0.35798714585390
H         3.36952172329210      -2.30915634322011       0.12721144374569
H         1.97737921463359       4.36935167583019      -1.64728125991641
H         3.11180074262967       3.02140830468988      -1.38603402893326
H         1.97372387009498       2.97730993546338      -2.75943434367355
H         3.70172686798876      -3.08782919138540      -2.25468603194942
H         2.46626423416656      -4.35091393617182      -2.01888442687715
H         3.99158560103630      -4.40820068744220      -1.09981416250347
C         4.79795748127707       1.30834526097459       2.66733837519170
C         3.54527252198631       0.99635495335725       1.84026875571460
O         3.65856938942839       0.12633826003019       0.91550328178363
O         2.49579731815574       1.64301931621121       2.14092261846197
H         4.56755820053317       1.21415806833061       3.73927105933450
H         5.63383710975047       0.64695472921590       2.40269393327898
H         5.09301038054849       2.35557403099975       2.49719841418619
