39
C9H16F6N2O4S2 optimized with DFTB in AMS.
N         0.91854831353881       1.06981934531616      -0.03808586713367
C         0.29802771935421       2.30628234644463       0.55058820112918
C         0.28935400374499       0.76641611669472      -1.36822017714109
C        -1.21742042181033       2.20479718857476       0.66619220901295
C        -1.22096404107220       0.60520860394197      -1.27018356881906
C        -1.85619377193340       1.86128276783522      -0.67837949086626
C         0.78923572251144      -0.08090503398647       0.89261290217651
C         2.37034071166550       1.32324449339551      -0.25688201483673
H         0.56660096196343       3.13256760062697      -0.11437216189523
H         0.75645875196113       2.46647344129644       1.52911945670559
H         0.76222754524629      -0.14089431936912      -1.75135318163731
H         0.53334306802583       1.60321663919451      -2.02753958919897
H        -1.57623141640909       3.18445072797765       0.99134893345799
H        -1.50080283441840       1.46982673276081       1.42610043232522
H        -1.48160092676519      -0.27687268519383      -0.67711199163341
H        -1.59606791531800       0.44547600738723      -2.28435121136489
H        -2.92872984643626       1.70534735444742      -0.54409792220093
H        -1.71486975764506       2.69711326688613      -1.36755582424261
H        -0.25923312615015      -0.27619694453820       1.09980684251584
H         1.24266541662857      -0.95767924658363       0.43351116969720
H         1.30609134958385       0.16078503492271       1.81976088413276
H         2.48534614130620       2.12179887431903      -0.98509820654228
H         2.82606970106687       1.61063746989825       0.68862161222213
H         2.83357131242840       0.41429036631152      -0.63619801960716
N         0.35082975428491       4.00918955217946      -2.03358203738451
S         1.70463440192653       4.13199085120928      -2.88249474453143
S        -0.37605011359785       5.38575073570377      -1.59504032648861
C         3.02584553777229       4.80363428383521      -1.72649148817497
C        -1.29911742034294       6.01805887551521      -3.09934476725031
O         2.14101291153335       2.76053178244995      -3.07683564092816
O         1.66639180962342       5.00844760237103      -4.02045849010750
O         0.52176278741321       6.43761329695146      -1.19466032928365
O        -1.41758782715312       4.98544539121519      -0.67474461672088
F         4.17427083182667       4.19576049565446      -1.99496619597423
F         2.68418968101323       4.47470568454960      -0.47342138909640
F         3.19548520624719       6.09983147774023      -1.80887119083496
F        -2.42172754543755       6.59395493100062      -2.70208616040459
F        -1.60183731217478       4.99625211410325      -3.88743265842015
F        -0.57741339470199       6.89080199816090      -3.76729481605543
