44
C12H26BF4N optimized with ForceField in AMS.
N        -1.62958203386050      -0.29681986303143      -0.17565234762334
C        -1.91225803213841       1.11572051908187       0.22375165332049
C        -2.63842223494874      -1.21967063091434       0.43558906104463
C        -0.29123653646638      -0.71736664221197       0.35826624404689
C        -3.35772593689760       1.55888932855651      -0.06140010560820
C        -4.10326332200278      -0.82078843095562       0.17872097315970
C        -4.35793378916538       0.62071822075556       0.60493908321987
C        -1.64188425603899      -0.44261484434725      -1.65723845320483
C         0.92795337625455       0.06484962378765      -0.18802291991034
C         2.22942800418426      -0.46009679485282       0.43388644513384
C         3.44796578398858       0.27644717638669      -0.13476921795016
C         4.75027971434099      -0.26114897889561       0.46985721439081
C         5.96287053843408       0.45905909398135      -0.11187900182199
H        -1.24505666611578       1.82179503377958      -0.31609057421727
H        -1.72012322928747       1.25452892443904       1.31236870431906
H        -2.50401032176160      -1.26063120489790       1.54197721871688
H        -2.49109929146279      -2.25880386843640       0.06175974087171
H        -0.27918215935672      -0.62028205915904       1.46900707231990
H        -0.12282391955293      -1.79810366794215       0.14024995617742
H        -3.50661710800357       2.58490445804787       0.33837459221101
H        -3.54446774704214       1.60236819576303      -1.15527620651595
H        -4.37834397270796      -0.96144635281648      -0.88682570779193
H        -4.76584100788623      -1.49022979277753       0.76866850879221
H        -4.27021922674669       0.70478684005262       1.71026296042313
H        -5.39018827788263       0.91467326482325       0.31678763471086
H        -1.01255258100286       0.32933701877964      -2.14902721775493
H        -1.27577731764913      -1.44816376962785      -1.96307580664038
H        -2.65440137859609      -0.31630446579765      -2.08657641472199
H         1.00217151733661      -0.05478971885369      -1.28852863604526
H         0.83890866464416       1.14387731249648       0.05462009311303
H         2.19478762035675      -0.31904356167497       1.53715229367647
H         2.32674349517824      -1.54772902341329       0.21996016674573
H         3.35905285642298       1.36262875952106       0.08850411639213
H         3.47528737378436       0.14397587896410      -1.23910781205977
H         4.84250676202574      -1.34877572641308       0.25743189737433
H         4.73990424686176      -0.11832739643536       1.57254902962438
H         6.01031231716119       0.31054047587835      -1.21197494366915
H         5.91183501574956       1.54609695168781       0.11195183415197
H         6.88915490164897       0.04882935230337       0.33816684348386
B         8.72510372642199      -1.15637759973246       2.47231149368357
F         8.81573728468507      -1.65578640230750       1.14568914050390
F         9.83273736864223      -1.62254048262363       3.22897081698341
F         7.51833169402480      -1.61095226843096       3.06767349105870
F         8.73377891172649       0.26382350726318       2.44630917458560
