37
C11H23NO2 optimized with ADF in AMS.
N        -0.39368108972468       0.37896076126063       0.00030910733767
C        -1.18348772958938       1.68089437769776       0.08095866507957
C        -1.32629741533037      -0.76589166671328       0.37095678644955
C        -1.83986885075646       1.89384174983239       1.43344237684738
C        -1.96291953815402      -0.58828098607855       1.74070704930312
C         0.80058894504380       0.37517115878943       0.92445498439351
C         0.01169633681033       0.22899139970078      -1.45794706100128
C        -2.75104699414335       0.72006076121781       1.79389810013108
C         1.88163567462667       1.38682542350830       0.59851052611304
C         0.78606778217000      -1.03108832720267      -1.78058669966629
H        -1.92987214612122       1.59073484446612      -0.73767874883742
H        -0.48469218626198       2.48890488142612      -0.17876401455134
H        -0.73189307399942      -1.68768093904478       0.31393439031526
H        -2.14400385292968      -0.75342484602416      -0.39183386782233
H        -2.42358848087512       2.82696615785071       1.35821738804130
H        -1.08893995203136       2.06522343087698       2.22731784177893
H        -1.22188080453627      -0.64359140998935       2.55980134302156
H        -2.64299727213056      -1.44619974214917       1.87556828705728
H         0.41181684734204       0.54609896494599       1.93479843555903
H         1.20084568611378      -0.64905544348653       0.89724257601599
H        -0.94918975732473       0.30063570894051      -2.01361415595366
H         0.59652686914900       1.12922177603155      -1.69820215510000
H        -3.19822568653377       0.86776809161423       2.79032640926206
H        -3.56354418801829       0.65306028463588       1.04865706184717
H         2.65924702917290       1.31759928535502       1.37486695774664
H         2.36161786333903       1.19319391345212      -0.37035046694930
H         1.50389740861933       2.41856871345802       0.60663882008217
H         1.03885892346092      -0.99550457515178      -2.85172768838292
H         1.73172943676654      -1.12606926063478      -1.22519298342405
H         0.18515985921297      -1.93790474077544      -1.62724100738530
C        -4.93373350347307       0.50846870635911      -3.10470801765593
C        -3.72346387581083       0.35899907711210      -2.17574914735637
O        -3.84399261977547      -0.41843017871474      -1.18286358285067
O        -2.68415375493689       1.02511316924698      -2.49555940776772
H        -4.83174336253223      -0.20720744072115      -3.93651288264396
H        -5.86952510952401       0.28236004338468      -2.57548152413529
H        -4.96612452681414       1.51738920092315      -3.53978129609845
