36
C10H16F2N2O4S2 optimized with ADF in AMS.
N         0.64153400830400      -0.00827356559609      -1.04588077437546
C        -1.67707428308639      -0.41073707588569      -0.19264043747714
C        -2.94829567425261      -1.21596460466377      -0.45215355729697
C        -0.54105294266093      -0.91546004065102      -1.06987891357266
C        -4.08876405706070      -0.77765024276715       0.46475242357949
C        -5.37616784410225      -1.55019376632871       0.19885005758721
C         1.17026346113652       0.35615056095608       0.14164479298594
C         1.11823167006178       0.50413482388017      -2.19856633852850
C         2.21947309916685       1.24954976902549       0.20149049583451
C         2.16610106131682       1.40660231942061      -2.19030925588240
C         2.72626527033766       1.78784198306614      -0.97818546215740
H        -1.40838005239026      -0.49629731356331       0.87549618722909
H        -1.85792962504090       0.65323459793883      -0.41187497460083
H        -2.75390462992946      -2.29797347512278      -0.31893966118558
H        -3.25465419452067      -1.06681818796971      -1.50376422918684
H        -0.18935847215725      -1.91565918053788      -0.76532297327935
H        -0.86624088670971      -0.96232980349857      -2.11769740915318
H        -4.25933336151543       0.30090469185593       0.31476122362255
H        -3.78005491476390      -0.91322801953796       1.51744909875090
H        -5.70754920453932      -1.40712325394261      -0.84178133319398
H        -6.18645585211284      -1.20421938755697       0.85850583084562
H        -5.23814014880717      -2.63073123685660       0.36627045872002
H         0.70816643377972      -0.07535012689834       1.02555541355801
H         0.60657642682422       0.20348896523548      -3.10848396688772
H         2.61234965877872       1.53804101986981       1.17594780158267
H         2.49965213533546       1.83284864320093      -3.13539235110701
H         3.53606014499029       2.51826114071350      -0.94909389900346
N        -2.21300021456804       4.06364691076943      -2.15270536776435
S        -0.88256670317708       3.21187957566174      -2.12362153784147
S        -3.43994690207628       3.65757119484654      -1.16980328520019
F        -1.30408970870030       1.77332526879041      -2.93930276187965
F        -2.87380302413971       4.11993542303881       0.31374509779642
O         0.11084908583828       3.78900864935843      -3.01149745338849
O        -0.45448964389523       2.69788446201496      -0.82380981337433
O        -3.65631691679282       2.22537341749228      -1.02647215909922
O        -4.53993897077107       4.55245805864162      -1.43971181795624
