54
C14H26F6N2O4S2 optimized with ForceField in AMS.
N        -0.71224558324028       0.31834826981099      -0.15404459492958
C        -1.28045115805951      -0.44489240104119      -1.31233108210497
C        -1.83884425396601       0.72818237470386       0.74649815654042
C         0.27862896951188      -0.49967305835469       0.62852340886021
C        -0.08005468835200       1.55520475313721      -0.72884017637049
C        -2.13039852181492      -1.66098552469109      -0.90765393909276
C        -2.72811660792786      -0.44532715043625       1.20886956217621
C        -3.26562071280420      -1.23530268608897       0.01880644612818
C         1.55533028548847      -0.92599997011808      -0.13418201445357
C         0.66237037778538       2.46712430014505       0.27862395472066
C         2.47709309377719      -1.73939183149388       0.78437044735592
C         1.22594270060410       3.69914123988124      -0.42659471332027
C         3.74968284976488      -2.16363794789347       0.05860774495197
H        -0.48519373629005      -0.77869871879450      -2.01053604592732
H        -1.93947435866179       0.22018481627753      -1.91901703366652
H        -2.49922276171548       1.46498595830764       0.23347906139392
H        -1.45550937330794       1.22591278962771       1.66295663247272
H        -0.18809059921180      -1.42844967937213       1.00820163871583
H         0.58486204761844       0.04933468576113       1.54591702913253
H        -0.85788465260018       2.17801798317560      -1.22933586790703
H         0.63275544003802       1.28358509459768      -1.53938797516039
H        -1.50862469487332      -2.44627802002507      -0.43095769914575
H        -2.56817225297678      -2.11327604341687      -1.82376602516459
H        -3.58662076472143      -0.04089583875610       1.78691897767785
H        -2.17576479557088      -1.11859592795832       1.89689918591937
H        -3.98814409970966      -0.60551259330742      -0.54559703060886
H        -3.80596374444014      -2.13586822962251       0.38241749237205
H         2.11672004284574      -0.03898691393437      -0.49146511667748
H         1.29292146981599      -1.55988976193616      -1.00517730262314
H        -0.02226917408333       2.81646236115532       1.07734490559697
H         1.51358220794817       1.93327463292610       0.74755557188600
H         1.94605808472011      -2.65042531817663       1.13772513217311
H         2.75644978406215      -1.13039335661432       1.67188918631213
H         1.76204004020798       4.33818815353179       0.30632348264728
H         1.94103584279264       3.39630554806681      -1.22125517138985
H         0.40507352556796       4.29397507350352      -0.88116945539431
H         4.30752327985042      -1.27001854322773      -0.28913518972983
H         3.50134193516659      -2.80280931471034      -0.81496923953407
H         4.39788350040497      -2.74123872009180       0.75065821305797
N         8.29162013261310       0.94916241083343       1.44544827279925
S         8.51387783832958       2.40664723618627       0.72963847531064
S         7.40802784931691      -0.24941763969562       0.76087563384783
C         7.25038944840097       3.53191139746875       1.28558253823396
C         8.50781686902333      -1.41323816080060      -0.01712153583197
O         9.85691766095665       2.94974662743771       1.12727375897379
O         8.44669555076707       2.27884703580962      -0.76728934755124
O         6.46052414755759       0.30665768735635      -0.26563169071771
O         6.63015481897023      -0.96010287011192       1.83182516308282
F         7.44780004768930       4.77056698384701       0.70548489418296
F         7.31459208240112       3.65501495738862       2.66053691604487
F         6.00514141527355       3.05193806511378       0.92700951457905
F         7.76991857820089      -2.42122601334018      -0.60806708117762
F         9.35091193035848      -1.95883923981450       0.93232652413702
F         9.26016438979772      -0.77026729912603      -0.98159342440418
