47
C13H26F3NO3S optimized with DFTB in AMS.
N         0.27287996233856       0.14135721958532      -0.57457892029318
C        -1.01781374274615      -0.54561966150728      -0.90777049925073
C         0.03161266838321       1.09396177328185       0.56881769138802
C         1.35224715546728      -0.83671658214194      -0.19703983280914
C         0.66427916825367       0.93797551142344      -1.79263248730191
C        -1.62524481987798      -1.27658252196435       0.28366132350854
C        -0.59889419232367       0.43129744842745       1.78611157236531
C        -1.88921105195279      -0.29917674990602       1.42760497829923
C         1.70305045448433      -1.87158388643834      -1.25979220562139
C         1.98391162991346       1.70059826543860      -1.68553784530087
C         2.85122594055351      -2.74036585547704      -0.72623444705585
C         2.23605535823660       2.45261513948822      -2.99090024021812
C         3.26050303931280      -3.80030684540974      -1.74527290462785
H        -0.82876773694491      -1.23505206890112      -1.73266480548764
H        -1.70814037096776       0.22915508302863      -1.25453151299118
H        -0.62293758878561       1.88216134142635       0.18514470870170
H         0.99630172049210       1.52320373875439       0.84359832822140
H         1.03314676835859      -1.33946427918130       0.71521311965106
H         2.23320728859747      -0.24408423569495       0.04744992814010
H        -0.15240266232678       1.64220109306709      -1.97767881580479
H         0.70306895628993       0.23880142844932      -2.63224700931258
H        -0.96754713656993      -2.08315468103472       0.61634746379307
H        -2.56332349679200      -1.72736725499436      -0.05142404461784
H        -0.80786568225358       1.22539306695930       2.50740233480090
H         0.11048807383018      -0.25466848692016       2.25335282735219
H        -2.65639391057452       0.42055912412875       1.12189626901189
H        -2.26094726013900      -0.84371099267964       2.29850265575705
H         2.02278360926852      -1.38801617690383      -2.18710091254302
H         0.84408875195067      -2.51032314902080      -1.48740706436389
H         1.95035987724420       2.41069730842352      -0.85796222327196
H         2.81262679185928       1.01565061317667      -1.50051624957939
H         2.53605660879642      -3.22537119955386       0.20274335219800
H         3.70877072803886      -2.10238874752834      -0.49577008636073
H         3.17574282355439       2.99824402743716      -2.91730419485733
H         2.30225947140761       1.75812519795863      -3.82962678000985
H         1.43434584963877       3.16503788536779      -3.18988270854992
H         3.59398091002001      -3.33155166172270      -2.67235678046660
H         2.42222326677408      -4.46091358494306      -1.97251613180773
H         4.07740206349359      -4.40007746517841      -1.34511408579794
S         3.23445918651795       0.78976960557864       2.34160168355704
O         3.32860871253996       1.66426527356134       3.47899966814332
O         3.09117249169954       1.46560992013263       1.04937210972267
O         2.32391636166008      -0.34055269947815       2.49120920357644
C         4.88859261089701      -0.02829731813641       2.17897033509270
F         5.17475686013594      -0.77713197996209       3.23545243798390
F         5.86151609413189       0.85699704140294       2.01291577474331
F         4.87227453561415      -0.82692017531941       1.10181679829357
