46
C14H30ClN optimized with ADF in AMS.
N        -0.12648987922549       1.52962674843659       0.11079297442307
C         0.44899341826378       2.51533929886226       1.13436041523938
C        -0.83586953250390       2.44026672771961      -0.88615493202016
C         0.98088666145588       0.77442207581093      -0.58421828681955
C        -1.11915803477436       0.60961675404491       0.79549360304517
C         0.57569416959804       3.87005812160107       0.41919689089230
C         0.08046305548265       3.64216424431017      -1.02220795779210
C         1.67556514333785      -0.27732060711664       0.26796463147888
C        -1.80842299602961      -0.36577986784102      -0.14065623301333
C         2.91506299549049      -0.81975304684802      -0.44477173069492
C        -2.85341867953716      -1.17981450799699       0.62782691741370
C         3.63842111157054      -1.89782175271550       0.36126159935825
C        -3.60085780839920      -2.17327114587258      -0.26033540277650
C         4.87752338207239      -2.42614908264488      -0.35546417687215
C        -4.64561005139753      -2.97667955379973       0.51001481467197
H         1.39426659527471       2.10209234986940       1.50959331683403
H        -0.31364542690195       2.59724453516159       1.92744526688284
H        -1.76740179710863       2.74926696037467      -0.36247351523044
H        -1.02760475669191       1.88250343630675      -1.81247068818125
H         1.70407791679774       1.53054196587436      -0.92459552932637
H         0.53583788026635       0.30818466123867      -1.47685198472097
H        -1.85005216527557       1.31145772036739       1.25911118192633
H        -0.56582627683522       0.08863906074088       1.59179548673319
H         1.59925284724298       4.27085800133384       0.45241094809635
H        -0.11373905958664       4.56289725068262       0.92740174152084
H        -0.49164506630787       4.50584502764038      -1.39301904803052
H         0.91050803070778       3.45890566602698      -1.72445297428055
H         0.98593470555446      -1.11040710529658       0.48156509162291
H         1.97678522527431       0.14643367306811       1.24077212120341
H        -1.09131458104865      -1.05666406521738      -0.62055672767663
H        -2.32205644789868       0.18996839017557      -0.94391465404222
H         3.61522121868724       0.01158444531394      -0.64833593349426
H         2.62658844455630      -1.23329056480260      -1.42922568701444
H        -3.57342746266424      -0.48473379471569       1.09499941117676
H        -2.36243502209991      -1.72739647500612       1.45418423662689
H         2.94141257796153      -2.73070670594833       0.56524223131940
H         3.92541059009321      -1.48385942431815       1.34504023169872
H        -2.87623444580646      -2.86233125702697      -0.73232322409206
H        -4.09182959529888      -1.62341992545825      -1.08396515431694
H         5.38622221768920      -3.19795762508422       0.24175580557715
H         4.61027536690502      -2.87114489012002      -1.32734938984427
H         5.59840812093151      -1.61478699912971      -0.54452514744576
H        -5.17145196812613      -3.68474947476821      -0.14873502568805
H        -4.17771965391396      -3.55452762066882       1.32325501001732
H        -5.39760648485757      -2.31090642746952       0.96203702682812
Cl       -2.65520715842441       3.40382882690526       1.67767283468648
