38
C10H20F3NO3S optimized with ForceField in AMS.
N        -0.01505366993458       0.23400297679923       0.15785181755467
C        -0.92384186858419       1.22044908356143      -0.50915325271162
C        -0.46060296563512      -1.16335300666027      -0.13660906723227
C         1.35368755169289       0.46390053814042      -0.41361196248474
C        -2.42065737946645       1.00139925610627      -0.22465558450096
C        -1.94280491668935      -1.41779004072026       0.18773588810646
C        -2.83559624588361      -0.42870080251003      -0.55127173863875
C         0.01344124699623       0.48272832637829       1.62525309344500
C         2.48099087652764      -0.42768598584580       0.16109751162809
C         3.81431288114180      -0.11487294043880      -0.51446591694231
H        -0.79849071882276       1.17429606624033      -1.61622798684496
H        -0.66183444104191       2.26014334099906      -0.20575726223551
H         0.12854370422825      -1.90091359556599       0.44976297117081
H        -0.30021002186791      -1.40047665432068      -1.21358734188298
H         1.65339485481578       1.52684900728479      -0.25739249954398
H         1.33471161491189       0.30782339452423      -1.51748880841738
H        -3.00747683636475       1.69802611772441      -0.86097027382833
H        -2.66980991526788       1.24235371433529       0.82957546140343
H        -2.12172108154343      -1.34929176096560       1.28187803730238
H        -2.21089567671912      -2.45009789276020      -0.12496017821591
H        -3.89394231196584      -0.58711398757369      -0.25148521433063
H        -2.75777069876458      -0.60078629147071      -1.64757741783965
H         0.56483801055118      -0.31694888303078       2.16401026204328
H         0.49377343455995       1.45931878216812       1.85711948092403
H        -1.00011051288075       0.50232420538330       2.07033999076480
H         2.60720880422290      -0.25167355798233       1.24891662207411
H         2.26296822451152      -1.50129671368339      -0.00922406147702
H         3.74951656152878      -0.30845237115301      -1.60649357178674
H         4.09306422683131       0.94740334030472      -0.34676673561633
H         4.60934806902073      -0.76172393840754      -0.08715663741620
S        -7.01762934975783       1.46546970880970      -0.36031858690813
O        -5.56707497684885       1.83612718055645      -0.02230699633790
O        -6.86394938701660       0.21702100872458      -1.24190422300745
O        -7.43037398038401       2.55483014453446      -1.36128616760894
C        -8.11061654438546       1.27626921496014       1.07364080513825
F        -8.08110277053361       2.43201932039734       1.82993900005157
F        -7.68091178800077       0.21222493490462       1.84287830541954
F        -9.40162061798149       1.04119692245190       0.64203356578226
