54
C16H36ClN optimized with ADF in AMS.
N        -0.00848065242777      -0.03677974481643      -0.04981056370619
C         0.87519862708396      -1.03804172830031       0.67170001743472
C        -0.84119789533274       0.70713912450720       0.99000877328110
C        -0.87488695156136      -0.77028367348238      -1.04957519914947
C         0.83466123888829       0.99422467041168      -0.80060772995232
C         1.86184089848144      -0.44303007933889       1.65979779528346
C        -1.90482726120270       1.63002440510403       0.42394427642511
C        -1.85431297296385      -1.78020866384855      -0.47604890124994
C         1.95262861810091       0.43264257602936      -1.65833107831151
C         2.80731521885827      -1.52702213400903       2.17768565271549
C        -2.41885550526450       2.53906283273372       1.54506558885902
C        -2.71718698942680      -2.37381019807623      -1.59233223987065
C         2.64522791835122       1.58745713732027      -2.39024223623790
C         3.79454959571063      -0.96432203109503       3.19803694125072
C        -3.49793298820636       3.49900619335084       1.05504173153656
C        -3.71441666413290      -3.39899118281134      -1.06042629321454
C         3.81528832164586       1.10683831636082      -3.24299019700848
H         1.39579638057917      -1.60853824737760      -0.11404746017132
H         0.19171761445905      -1.72761486239888       1.18765831926338
H        -0.10742795412157       1.33231772284112       1.54974010253341
H        -1.28127695187972      -0.05926988017734       1.64638620075137
H        -0.18658952349242      -1.26296247199185      -1.75173138512812
H        -1.41879339451397       0.00880842412169      -1.60388173460434
H         1.21321780160257       1.70399527282178      -0.02407816709318
H         0.12320091342376       1.54618598597667      -1.43061109454235
H         1.33366742554317       0.02920149202407       2.50285137447611
H         2.43667154380856       0.38252705844842       1.21206341573501
H        -2.74605569282724       1.07482257798923      -0.03088920581557
H        -1.46701556737560       2.28085644095843      -0.35063251858405
H        -2.51029792547306      -1.30039695499579       0.26883079362818
H        -1.32205458003175      -2.60017791048189       0.03376780570487
H         1.58658250301365      -0.29470867595350      -2.40655723263205
H         2.70332584317574      -0.08260612661141      -1.03603607586587
H         3.36137564948124      -1.97353638480897       1.33050147557134
H         2.22575509383869      -2.34922866385673       2.63594673563415
H        -1.55182888331586       3.09867758250052       1.93980759825093
H        -2.81214695359758       1.92075344791065       2.37280184840245
H        -2.06545055728321      -2.84523617742681      -2.35011052889581
H        -3.25806316578485      -1.55987107334046      -2.10798443310847
H         2.99041713961905       2.32264832150639      -1.64264566560715
H         1.90884727514465       2.11065182307599      -3.02655292471587
H         3.26191688125115      -0.53856996091816       4.06222750684100
H         4.39248535257919      -0.15326866936441       2.75489807089711
H         4.47995492258190      -1.74424970986569       3.56291985325573
H        -4.37433635134580       2.95766793291127       0.66202532668260
H        -3.10897324204453       4.14371447388812       0.25045552613219
H        -3.84232206826378       4.15401022664768       1.86950982025603
H        -4.39347372353618      -2.94093433907524      -0.32422252870226
H        -3.19422344634280      -4.23361703383763      -0.56413199292683
H        -4.32746357256534      -3.81722597469230      -1.87235070179203
H         3.48200809916544       0.38523046704688      -4.00690177435581
H         4.57748768407736       0.61109619767548      -2.62110766836769
H         4.29999090187864       1.94770901770338      -3.76152124205482
Cl        1.40772420367068       2.95986116428713       1.79644526986255
