34
C10H18F3NO2 optimized with ADF in AMS.
N        -0.65892025056392       0.52471498006918      -0.03381433570717
C        -1.82666912859553       1.20342422170544      -0.74174318455922
C        -1.18386433090191      -0.88424232114210       0.27377021394207
C        -3.05232005994706       0.68487223917284      -0.01528347510438
C        -2.71783306261993      -0.80371875528549       0.18859799426038
C         0.53901273746160       0.49192314107379      -0.96218483688037
C        -0.33997246590884       1.24632264000436       1.23104862562268
C         1.76989010072804      -0.18328503440421      -0.38233408101326
C         2.79637223391745      -0.38061092372136      -1.49952623551599
H        -1.80266853092814       0.79793047224922      -1.76669048978214
H        -1.66854522152148       2.29007887068530      -0.72333359933436
H        -0.80182286929753      -1.17365575472418       1.26139081817981
H        -0.79563494024134      -1.54626547770498      -0.51041164209678
H        -3.95288615452729       0.82361054936014      -0.63154658077314
H        -3.22016366764999       1.20660142501758       0.94136642979863
H        -3.20501878982852      -1.22669828911855       1.07866182445033
H        -3.02887668237689      -1.37120505607697      -0.70083586667234
H         0.74617785199944       1.54087832740261      -1.23140425362996
H         0.16262172628989      -0.03811180485168      -1.85618043483548
H         0.01425258589219       2.25462373217210       0.97747856183817
H        -1.24493534956106       1.30548964381675       1.84746369371326
H         0.44091227058393       0.69861669164632       1.77197127659849
H         2.21817023728515       0.41354993621743       0.43098960849162
H         1.50070932750594      -1.16754434666030       0.03865402285911
H         3.71255439738020      -0.84774334294984      -1.11032306476911
H         2.38301382102348      -1.02470388694330      -2.28988541435278
H         3.07208833927514       0.58140273014272      -1.95835969856277
C        -1.55720467252988      -1.04522672389697      -3.91828650352690
O        -1.37305171591227      -1.01390008988205      -2.65780034619236
O        -1.84416827944442      -1.97168525606250      -4.67938672357556
C        -1.39798581618724       0.37854554461942      -4.57259237409566
F        -1.45370740374665       0.38463799521606      -5.92425827946981
F        -0.19903173059630       0.97902130293192      -4.22211231922483
F        -2.38756103575626       1.24170757972131      -4.12909937898020
