40
C12H25NO2 optimized with ADF in AMS.
N        -0.44797658347632       0.13869623906620      -0.14761663489951
C        -1.51812064100680      -0.31765858322913      -1.10997160403007
C        -1.24336700871253       0.73746621743527       1.00229768339410
C        -2.64054030063695      -0.87131175520302      -0.23178132214027
C        -2.46225686123688      -0.17414924084258       1.14482293225074
C         0.43594727027418       1.17940926869009      -0.79596862171588
C         0.35216653189529      -1.03695578336638       0.39370899316518
C         1.52451278400765       1.72849563033547       0.10566958659941
C         1.23992148566354      -1.74476140775705      -0.61339751409168
C         2.25712786350870       2.87156045434899      -0.59096020936234
C         2.05649877743042      -2.80655239675918       0.13205970239306
H        -1.84326487219484       0.57665651290352      -1.66256027512264
H        -1.08721034964738      -1.03759082598256      -1.81698593839189
H        -0.56759810670986       0.79023999563203       1.88683258737150
H        -1.53614468839974       1.74603670863034       0.67025285644358
H        -3.61732404254142      -0.65474056256816      -0.68843789922836
H        -2.56315393050699      -1.96406976878643      -0.13431160227876
H        -2.30348662219913      -0.91360514636468       1.94283510484612
H        -3.34552888146000       0.41849045016629       1.42265798265464
H         0.85415286380182       0.71842024903401      -1.70522515738492
H        -0.25205360567608       1.98204875008726      -1.11402949393372
H         0.99249440005147      -0.63979166498636       1.21159308101693
H        -0.38500134608345      -1.73170132195742       0.82427728043369
H         1.08998108746799       2.07140500373503       1.05881741029972
H         2.22942831232112       0.93447179780235       0.40281779217338
H         1.94312815119526      -1.02537099652599      -1.06459530391471
H         0.66405318165579      -2.21103473394706      -1.43327863209571
H         2.72743718795917       2.54344406627496      -1.53274827626758
H         1.57914802162802       3.71009831992185      -0.82271901163350
H         3.05281569314312       3.25481278295077       0.06366342121798
H         2.62615467376152      -2.32357510184748       0.94157697067590
H         1.40109731606151      -3.57098068487208       0.57941093483401
H         2.75172008510663      -3.31198827691839      -0.55358652087623
C         2.74645546583584       0.36167295890837       4.51351189211217
C         2.00755315860543       0.26501249485946       3.17475658397856
O         0.85345499580748       0.79950649218782       3.13065410953619
O         2.59853559960849      -0.33904131351669       2.22693188997517
H         2.80470906964009       1.41291028142233       4.83320543358708
H         2.17131622509328      -0.17561957717053       5.28337215094925
H         3.75537847006454      -0.06698513419126       4.44484136315940
