37
C9H20F6NP optimized with ForceField in AMS.
N         0.25559529731078      -0.12094894159538      -0.18703571117573
C        -0.60354659804425       0.69201247884582      -1.10713772975781
C        -0.50880468199975      -1.33975314470583       0.23611736667285
C        -1.96906462144319       1.07529879838153      -0.51286017305331
C        -1.89241162738638      -1.03485017420564       0.84489484371667
C         0.66896020532277       0.66113821803621       1.03046334729849
C         1.44768832487125      -0.55999313417399      -0.99097691410259
C        -2.73525947464954      -0.17309441436388      -0.08948824344651
C         1.53556737423275       1.90490497721997       0.76184077631411
C         2.51383141142303      -1.36367400068065      -0.22258572310573
H        -0.80730371193824       0.11936112256832      -2.04200029655659
H        -0.08411101177375       1.61530325742313      -1.43759414088572
H         0.05685715452396      -1.91909045162458       0.99765572889105
H        -0.66827071194456      -2.01946393664978      -0.63235851994014
H        -2.56229646158316       1.61000956448379      -1.28542716418086
H        -1.85541408080714       1.77275884338133       0.34273361851951
H        -1.79010547030171      -0.54072391534362       1.83379228070431
H        -2.42748428781376      -1.99303371730368       1.02010581939798
H        -0.21154499123501       1.01135017947944       1.60228844871187
H         1.21769285406244       0.00869307444402       1.74386296934728
H         1.12104283673421      -1.19347859619464      -1.84732492279735
H         1.94961755490154       0.31355255392823      -1.46168772700186
H        -3.67414214471578       0.12416547752120       0.42595181042951
H        -3.00839755194386      -0.76377288193223      -0.99135252085814
H         1.80889648243708       2.36917544699933       1.73262285527578
H         2.48182567647215       1.64772103571211       0.24980815361603
H         0.98340102308931       2.67058284155274       0.18144927021167
H         3.31571220836675      -1.66313062438511      -0.92930456902650
H         2.99073869532180      -0.75721521474188       0.57303141507080
H         2.09657285261496      -2.29502538521197       0.20828902367921
P         5.57001831031131       2.26193715837892      -1.31165848758186
F         4.71892188047716       0.78254245973184      -1.12899714182854
F         4.76136930286802       3.02458769391899      -0.00194076630936
F         6.71948074653626       1.65955240976636      -0.18599600016225
F         6.48001491310502       3.69598207290336      -1.56928991736917
F         6.45158582779473       1.59664881255145      -2.62754543468735
F         4.30978287230279       2.79005300948478      -2.35325932492981
