44
C12H24F3NO3S optimized with DFTB in AMS.
N        -1.02035237830586       0.25251571013768      -0.07332237179608
C        -1.43701107132941      -1.03950708336622      -0.70216848727984
C        -2.01859007706873       0.42324528190965       1.02496680402833
C         0.37176678974775       0.16766301073410       0.49885732551228
C        -2.96616078312623      -1.04226532531951      -0.65563441667040
C        -3.34637764411994       0.00068247476820       0.40829884829907
C        -1.13136796924613       1.35506049694788      -1.10254329921651
C         1.41934484172745      -0.37156252499797      -0.47126890497872
C        -1.20187255232977       2.76076080430850      -0.52938608648379
C         2.79957944862018      -0.30270614794198       0.19692696590149
C         3.90871530713736      -0.61908011180402      -0.80993402444399
C         5.28587489954131      -0.38698438693100      -0.19226272337607
H        -1.03463384216485      -1.09921007707560      -1.71293343745573
H        -1.02630358240623      -1.85194947186907      -0.09889890132037
H        -1.73769641987200      -0.25345729157614       1.83551049717040
H        -2.00159570082931       1.44715671940935       1.39284825862987
H         0.64554941842169       1.17557047066027       0.81806805899558
H         0.31263447505314      -0.47965436542748       1.37842177211080
H        -3.38878490737530      -0.77821960936459      -1.62674935044325
H        -3.32918577846265      -2.03611338870032      -0.38797432217698
H        -4.00462289842353      -0.41799622205208       1.17081489886167
H        -3.85150627722302       0.85397800565612      -0.04862008895324
H        -2.02245356525313       1.14976141192306      -1.69950027772050
H        -0.25239914084009       1.26660842541972      -1.74220497645510
H         1.43949961367910       0.23086485232683      -1.38102844812158
H         1.19334735555144      -1.40619273502960      -0.74810169470279
H        -2.19219225233165       2.98899356844455      -0.13578787592794
H        -0.45409873320308       2.92066274237544       0.24393638364728
H        -0.98122091012751       3.45089344544534      -1.34356365691632
H         2.83730628393717      -1.00503825081806       1.03738607907915
H         2.95480742224425       0.70501270856046       0.59052851112808
H         3.81846689045802      -1.65766168171745      -1.14853072083923
H         3.79682796670795       0.03468618828611      -1.68002952870155
H         6.06448650213872      -0.63703343421691      -0.91328839374648
H         5.39404088208544       0.66119337738130       0.08760346080269
H         5.42180847896572      -1.00486401823779       0.69721965431939
S         2.35894262396508       2.99574998097286      -0.96096985599205
O         1.48654976938813       2.46077668769201      -2.00254978901138
O         3.74014199503664       2.58969560144040      -1.05657933571674
O         1.78361768688195       2.89696734841612       0.37898672318667
C         2.33584098030971       4.81528976486465      -1.29328463425490
F         1.06967047456306       5.24345081523616      -1.28796342363578
F         2.86096551625214       5.10097178575155      -2.47748490725080
F         3.00105374972500       5.48919085337749      -0.36427861078465
