58
C16H34F6NP optimized with ADF in AMS.
N         0.77139208666915       1.47537259386905       0.13384198612118
C         0.27889888206098       2.61371189888267      -0.76684093166759
C         1.68023688200515       2.16089286494891       1.18196519581641
C        -0.38615749311263       0.80270161562927       0.83245005893500
C         1.58282328363183       0.49448253064397      -0.70390290471859
C         1.23798163860378       3.76416683679584      -0.51845927772882
C         1.48522473051199       3.65608262410514       0.98511327594769
C        -1.37752281671291       0.10904725790252      -0.08672169799361
C         2.11895672960988      -0.69915534244545       0.06483394907183
C        -2.58598367795714      -0.39535546540223       0.70702419166463
C         3.16257316138390      -1.43679066012378      -0.78244245208660
C        -3.59973955883166      -1.13324409498454      -0.16565571687326
C         3.86178726580346      -2.54986961341123      -0.00546377269964
C        -4.81737414694643      -1.62557665561533       0.61533863393783
C         4.95860839516937      -3.23315034335026      -0.82120476004518
C        -5.82643697472850      -2.36026895744034      -0.26466887643360
C         5.67663208165945      -4.33541427289305      -0.04541527332924
H         0.23563244226299       2.25279768821814      -1.80190502180962
H        -0.73561081062478       2.87148517463481      -0.42635573815256
H         1.40347075529216       1.78821839482690       2.17566774282778
H         2.71501996319435       1.87486576993614       0.95504182311366
H         0.05077246333192       0.08317310505511       1.54080904965956
H        -0.88235274539790       1.59456688085309       1.41725216195326
H         0.93111262241395       0.17857862545053      -1.53297583921353
H         2.41768480695872       1.08781006995212      -1.10692373677860
H         2.18425081649465       3.61711582953354      -1.06237138141033
H         0.79324571754924       4.72301542471244      -0.82247026590040
H         0.61706645451787       4.03008697083074       1.55469349122177
H         2.38831343945556       4.19547065106169       1.30417266653963
H        -1.72636184199843       0.79802494927800      -0.87614637541737
H        -0.89308410762319      -0.74540500758328      -0.58944647588629
H         2.61069680837984      -0.35872348751546       0.99085848295427
H         1.30479132079945      -1.39332227393339       0.34235458675358
H        -2.24204362906607      -1.06712138280986       1.51573905962901
H        -3.08348860067782       0.46052288309685       1.20159110778860
H         3.92120037535551      -0.70853022108507      -1.11701672349133
H         2.68265340154395      -1.85635622044580      -1.68731979560656
H        -3.93510538588701      -0.46514921417421      -0.98177342490798
H        -3.10445076831355      -1.99523564590724      -0.65193516010861
H         4.31141151285009      -2.11332791564931       0.90615979426597
H         3.12233990711505      -3.30378916876441       0.32881375549630
H        -5.30737895763947      -0.76228198663016       1.10228999847398
H        -4.47916429482897      -2.29156292917181       1.43024697971897
H         4.51863294301937      -3.65251454042281      -1.74510378329261
H         5.68702366167172      -2.46606688590638      -1.13938688234533
H        -6.19753381571096      -1.70555736884565      -1.06931230041293
H        -6.69588101484007      -2.70386701015350       0.31573956736334
H        -5.36774845971852      -3.24385327833339      -0.73679238596291
H         4.97305391576764      -5.12428419895693       0.26763587895004
H         6.46434129068092      -4.80925336602308      -0.65101806003419
H         6.15152333045152      -3.92897039384822       0.86192555201140
P         5.43918191704539       2.23102905517120      -0.14833981149526
F         4.73668439095974       3.32887907578494       0.88997107979654
F         4.63214972388151       1.00664790070534       0.68123884798292
F         4.07503291319175       2.37679936811540      -1.14838413359548
F         6.03692093620084       1.10334891722489      -1.18642916710452
F         6.15786432736445       3.44407851010814      -0.97421612277195
F         6.72193249335690       2.06565328099876       0.84846273317934
