33
C9H14F2N2O4S2 optimized with DFTB in AMS.
N         2.31634567031088      -0.34648426202723      -1.00580905596841
C        -0.02033266268910      -0.42251518235012      -0.26877185094625
C         1.37563870194965      -1.02721938485684      -0.11039728445981
C        -1.00708938824016      -1.11529270235290       0.67641159790638
C        -2.40861244165436      -0.52460451414112       0.54066799266118
C         3.11669934840740       0.61464131703538      -0.52565246648208
C         2.37462105295899      -0.71967782076799      -2.29435024829218
C         4.02029300444129       1.24998431223410      -1.35351929164064
C         3.24576326118163      -0.10159563352731      -3.16443157178364
C         4.09070106199488       0.89468677280455      -2.69192527075523
H        -0.35218398102444      -0.53618857752923      -1.30593350249223
H         0.02361450241508       0.64809275728870      -0.04431427629001
H         1.37888571100225      -2.08956192576160      -0.36439526973722
H         1.73724391114881      -0.91048401863207       0.91217160839519
H        -1.03591242776741      -2.18535858901706       0.44787126386734
H        -0.65936156319699      -1.00156909274833       1.70783953844159
H        -3.09096486889106      -1.03288373577492       1.22137585362484
H        -2.40134473054665       0.53845119830404       0.78442023156508
H        -2.77862549285289      -0.64578757115501      -0.47822034412771
H         3.04521380881008       0.83630111670051       0.53124889517563
H         1.72326805907474      -1.52884885368335      -2.60063190573428
H         4.68537956053379       1.99369450328221      -0.93509049434674
H         3.28372369745602      -0.42606548985582      -4.19612286332563
H         4.80635040057375       1.36779379710771      -3.35269187180198
N         5.68264905498507      -2.52554624794130       0.94794185267807
S         5.83559915136820      -1.80838058707683      -0.45724002254087
S         4.31549682774885      -2.29797939215344       1.71049601049714
F         5.93362955359503      -0.20914956108160      -0.08500554891324
F         3.19113648644965      -3.06246594661420       0.78187925553000
O         7.11544927753238      -2.11679164360083      -0.99340916445175
O         4.69219340666561      -1.85582845567244      -1.32836227784860
O         3.81074880718951      -0.94814564387939       1.74221514965669
O         4.33410079726951      -3.04245416635628       2.92047612143938
