30
C8H15BF4N2 optimized with ForceField in AMS.
H         0.50323373076257      -0.48897940189262      -4.90409110278865
H        -1.16116941932679      -0.69496995297678      -4.23302766969740
H         0.01707572036787      -2.06096048008622      -4.14804281392762
C        -0.09098916840869      -0.95741914283359      -4.09201129482523
H         2.50011831983525      -0.02816621196548      -0.36592310850519
H         2.44004934387995      -1.15162951596865      -2.78789690188500
H        -1.35977081252973       0.46782453238405      -1.97222740566591
N         0.38639586559295      -0.48263124227401      -2.79950775630880
C        -0.31824921029980       0.18983260061495      -1.86901246801609
N         0.43581592563163       0.45521893889337      -0.78468841485609
C         1.65444949178062      -0.06289785481557      -1.04008562470977
C         1.62335466884404      -0.64433479416242      -2.29097623042298
C         0.01024804010151       1.14173724821388       0.43271481745234
H         0.78219385094782       1.88635457010467       0.72562816424397
H        -0.94030336522252       1.68749062603158       0.24258604019593
C        -0.20314842713372       0.12925981656912       1.56006375026429
H         0.75259678801844      -0.39966841845256       1.76027479424380
H        -0.96213173529329      -0.61663867393768       1.23678104982101
C        -0.67722766449086       0.81640069489876       2.84416597677044
H         0.09353410362854       1.54027913784928       3.18629296513743
H        -1.62028201877346       1.37110181086294       2.64830476464835
C        -0.92587808375804      -0.20336944792164       3.95157896365822
H         0.00527958363413      -0.76700634444754       4.17354494970165
H        -1.72173630443890      -0.91593796306394       3.64668548630750
H        -1.25294646456547       0.32079537655523       4.87420480533397
B         1.74849747264453      -3.38497819647176       0.80711174767370
F         2.79229652772582      -3.39383043208924      -0.15581858321402
F         1.46044332360680      -4.71679363679025       1.20634789496802
F         0.58542161093650      -2.80153216429733       0.23878514599321
F         2.15613459930231      -2.63057412613057       1.93920999800889
