42
C10H22F2N2O4S2 optimized with DFTB in AMS.
N        -0.23012220960995       0.15015451740081      -0.16994103501082
C        -1.26225234886534       0.60989711299750      -1.16197187349411
C        -0.61872366713529      -1.21171030236044       0.32463866754357
C         1.06833810724352       0.04799431995685      -0.93307808087613
C        -2.66748088497738       0.64017481381033      -0.58415809371177
C        -2.02767527754798      -1.26194399190474       0.90961800609388
C        -0.10095667199908       1.09131208659418       0.99939663761480
C        -3.06683988852198      -0.74709027541745      -0.08604204654250
C         2.29806109675478      -0.31593841265330      -0.10617955166318
C         0.27332370404026       2.52018755895175       0.64215425992679
C         3.48790249771680      -0.49340548158236      -1.05086006529503
H        -1.21925662745935      -0.09031702087651      -2.00055698246321
H        -0.96376232768586       1.59365382717898      -1.52175199369247
H         0.11100900392276      -1.51585943667303       1.07755304931577
H        -0.54780339021100      -1.89015329687173      -0.53001826227148
H         1.22106893172612       1.01384549356588      -1.41245711382500
H         0.91094978975115      -0.69846240715672      -1.71552707377375
H        -3.34048003893983       0.95972550986831      -1.38351598397608
H        -2.74164731184712       1.37391774705970       0.22207529401049
H        -2.07840658856314      -0.68623040302069       1.83759319027363
H        -2.23694357798387      -2.30574984228433       1.15893423001135
H        -1.05797461839813       1.08989600116444       1.52337288406999
H         0.64701817897880       0.65535055581394       1.66561304874305
H        -4.04603611640211      -0.70558919742470       0.39623524432017
H        -3.13328406531347      -1.43585891153389      -0.93438376957391
H         2.52771716291138       0.48017698889663       0.60629221796982
H         2.13454932311193      -1.24174890976016       0.45359193983777
H         0.42027076193092       3.05983939924002       1.57777397494682
H         1.19470303999261       2.57907228366909       0.06855074964663
H        -0.52115635928303       3.01418826182265       0.08848332301459
H         4.38243446055576      -0.72252406891825      -0.47296200591214
H         3.30276849062162      -1.30851999278379      -1.75075931882131
H         3.65908917797611       0.42001452454664      -1.61865732519803
N         0.45851982538351       2.62305600666916      -2.95360975762454
S        -0.21531369723772       3.99835928675638      -2.49945639901048
S         2.02522721873528       2.63600709024122      -3.20909616082896
F        -0.38072763103657       4.81931063028496      -3.86831685102945
F         2.62418304714682       2.74999406162253      -1.67249180078528
O        -1.55708911278421       3.67244072250213      -2.10754287362918
O         0.55486789212749       4.84043593489159      -1.64368911666408
O         2.58795930433346       3.74788371566475      -3.89095656569525
O         2.39502212504133       1.30638043285169      -3.58622466507098
