49
C13H21F6N3O4S2 optimized with DFTB in AMS.
N         1.05403342799881      -0.92251348098484      -0.41674734501153
N         2.73699664928531      -0.50011670802843       0.86009345699977
C        -0.17105938732360      -0.78059784102746      -1.19942026073905
C         3.72932835401867       0.19442715385367       1.68438553292191
C         0.13880982738638      -0.47454281129410      -2.67103839355843
C         3.10791195722460       1.27650409631706       2.56074404683934
C         1.64291531198646       0.02632803857046       0.31057908835152
C         1.81123215100461      -2.06098565800100      -0.36920518210161
C         2.86880836390329      -1.79524609165208       0.43989909073349
C         0.31231317032488       1.02460556323652      -2.92947666553171
C         2.03473011393596       0.72849220560892       3.50727398856065
C         0.75134122834531       1.27914105803099      -4.36985269772980
C         1.45460063295915       1.84002219077461       4.37990965360558
H        -0.71474669116060      -1.72525532671445      -1.11229382351467
H        -0.76977870401682       0.01449158785811      -0.74649072467047
H         4.22459238864001      -0.56555860315022       2.29507462819961
H         4.46665896993609       0.63663198665623       1.00769583083887
H        -0.69097442656029      -0.85517634732725      -3.27417158290445
H         1.04296983265151      -1.01360390584623      -2.96467549991094
H         2.68876220981768       2.06468543647846       1.93009482077864
H         3.91964408804395       1.71902073404130       3.14501175685332
H         1.30191638706166       1.04126736744081       0.41458122034427
H         1.54516192531373      -2.94954783392882      -0.91349389799646
H         3.70091521495116      -2.40784073080343       0.73852289986838
H        -0.63421961719972       1.53952235172257      -2.73049412585340
H         1.06547889811764       1.42874675579856      -2.24769469022316
H         1.22945033507358       0.26686078098637       2.92522226876029
H         2.47196024443204      -0.04817069319310       4.14415680577444
H         0.02760770418910       0.86333935282387      -5.07240210679743
H         1.72291134123016       0.82099011465914      -4.55417466004379
H         0.83419854427796       2.35095776703860      -4.54583774884190
H         1.01097447042678       2.61870527255995       3.75848211512740
H         2.23518044386619       2.28843117777724       4.99506243031696
H         0.68283025626822       1.43579918712022       5.03499000763642
N         3.25833569975992       0.68128729973345      -1.78020862683510
S         3.88147681727058       2.05873629335894      -1.25280673774549
S         4.10337290004719      -0.24010465456271      -2.78790925677854
C         4.04951638931834       3.29516179360669      -2.65307238511516
C         5.66327456265324      -0.83147002566494      -1.92260844183262
O         2.85241619283622       2.62303216818140      -0.39897530868781
O         5.20875390846171       1.93466918776753      -0.69046083587126
O         4.55434551599493       0.42997118620693      -3.97935957403892
O         3.32490093105392      -1.45110625249712      -2.92661649532217
F         3.95549769438892       4.51257616199977      -2.14518885233073
F         3.06831230988474       3.11980608684117      -3.52450634543057
F         5.20863080140003       3.16562400212739      -3.25909494198323
F         5.98451641814064      -2.02489649448867      -2.39531529127361
F         5.42201551857299      -0.96066403271937      -0.61364434823864
F         6.67372303960680      -0.01077650479261      -2.09698270719819
