20
C6H8BF4N optimized with DFTB in AMS.
N        -0.82654936847632      -0.06352600948407       0.09210056192808
C        -0.16667377297550       1.07935651854204       0.32869496086589
C        -0.19171069137674      -1.24600810392371       0.08929772833466
C        -2.28800832191202      -0.04787407439188       0.04139981761857
C         1.20602816891364       1.07626720754441       0.47160897201611
C         1.18048850926230      -1.30175534087410       0.22623487032581
C         1.89528879660108      -0.12696055134677       0.41744955105606
H        -0.75778192698854       1.98202771282998       0.40391163977204
H        -0.80214777559441      -2.13150072695517      -0.02434949413889
H        -2.65486582242833      -0.94651194879176       0.53380744206899
H        -2.64378600062741       0.82723112161018       0.58050540279189
H        -2.61452682948129      -0.01955032383668      -0.99865502360105
H         1.72056004782079       2.00811848125272       0.66577542454055
H         1.67511964223986      -2.26416508615640       0.22548268838523
H         2.96936224592277      -0.15238219931052       0.55329657809566
B        -0.82238834611601      -0.37075499695499       3.05399335808212
F         0.56821164907720      -0.34265728646174       2.93794426902476
F        -1.33591086440624       0.83607434275452       2.47766371950146
F        -1.24818559140721      -0.50580343930510       4.34328126068106
F        -1.30651333424761      -1.45375924544094       2.24772677485100
