31
C9H16F3NO2 optimized with DFTB in AMS.
N         0.88299559428507      -0.42073925660142       0.04880219672833
C        -0.41284632793905      -1.15770789871128      -0.03791360149131
C         0.51212785279620       0.88094581713962       0.69433519942707
C        -1.46086867262643      -0.09031440793333      -0.35531354193621
C        -0.84617611631656       1.24281568572098       0.10513773055111
C         1.89308838085499      -1.12694954030299       0.90708237649514
C         1.43014855551671      -0.16616252561947      -1.31189277343349
C         2.37746046225751      -2.44621349969234       0.33162870565210
H        -0.60250352969102      -1.61774204264362       0.93462641537984
H        -0.34532466475812      -1.93501432245659      -0.79903448546656
H         1.29957112205925       1.61015406721589       0.49960488970016
H         0.43878690699263       0.70639822548301       1.76983645052587
H        -2.38988595616350      -0.30861054508243       0.17406145340786
H        -1.67797902815766      -0.06814007835481      -1.42508933416329
H        -0.73702174235766       1.92844249169151      -0.73732390734535
H        -1.46636757361808       1.73018175143641       0.85902076723197
H         2.72867517373877      -0.43082291396986       1.02162639013962
H         1.42151620555000      -1.28580740443629       1.88047035853808
H         1.59002536408438      -1.11384867867252      -1.81978404116980
H         0.72156087229880       0.43708401116195      -1.87403267251166
H         2.37383940208139       0.36794803093344      -1.20061555055684
H         2.96803819883387      -2.29207357758168      -0.56912515695119
H         3.02341487040559      -2.90912075751295       1.07703798084799
H         1.55111159926722      -3.12326357876577       0.11626010285765
C         4.60883507875858       1.46898486663923       0.20041250948127
O         3.36973171138117       1.44467527836606       0.27677587185606
O         5.44300099853770       2.32771855969026       0.34431680671333
C         5.17624702819843      -0.02579325780079      -0.17851739304653
F         6.46370141744859      -0.11211919771613      -0.50767560059632
F         4.46806350402984      -0.55057440842774      -1.22342756191264
F         4.96905272595141      -0.89551891659633       0.84708338274774
