49
C13H25F2N3O4S2 optimized with ForceField in AMS.
N         1.36672807413208       2.25124178304950       0.02913958230349
N        -0.83790197873295       2.43019130044966      -0.20726467604384
C         2.74191067118378       1.83037732756989      -0.23163267572672
C        -2.18007840781075       2.25446239956020      -0.76088887337231
C         3.01147835957442       0.43759151572723       0.35676341075547
C        -2.44427124388370       0.78088699107865      -1.10650365785092
C         2.09158446272460      -0.63215941110956      -0.25202085378634
C        -2.39373430630597      -0.11932324653292       0.13736958314043
C         0.32891556112587       2.16037739022934      -0.82478538782365
C         0.84122788717138       2.60051967342689       1.22067025972564
C        -0.52547637635398       2.71881135346872       1.07228632072024
C         2.46052267233325      -2.03202105521114       0.24835457414644
C        -2.58999014980887      -1.59166518669005      -0.23875018721729
C         1.51429497469782      -3.08451401938132      -0.32327095897332
C        -2.53039649523935      -2.48680544590822       0.99607988789983
H         3.44317775737159       2.56564415264406       0.21873138028095
H         2.93325319587478       1.81306497354310      -1.32716330888446
H        -2.27837904621366       2.87147055995386      -1.67981597072953
H        -2.94434451033618       2.60690879409826      -0.03376146999056
H         2.87088089198619       0.46833557823828       1.45922049589535
H         4.07049957053357       0.16956517863497       0.15298088405656
H        -3.44931324944089       0.70094348955558      -1.57478512596503
H        -1.69473477454427       0.43635038262847      -1.85180752671344
H         2.17368150971417      -0.60465519330584      -1.36087931068074
H         1.03824368885101      -0.41829911697498       0.03019853959954
H        -3.19002864557455       0.19256994790132       0.84827600945793
H        -1.40963318650585      -0.00970415892919       0.64157541750036
H         0.41268953352162       1.82511832704327      -1.85132618705229
H         1.40107897598769       2.70246398501035       2.14121693810012
H        -1.24226087701933       2.92977832754752       1.85527846423716
H         2.40260154566180      -2.06154155898271       1.35822119360370
H         3.50056468919922      -2.27703436208581      -0.05844680307682
H        -3.57586267014639      -1.72510174659167      -0.73458434031226
H        -1.79297758069229      -1.90553847810054      -0.94768201037386
H         1.55463073814352      -3.07902323865451      -1.43331481423767
H         0.47269955224408      -2.88501062901721       0.00511811249264
H         1.81329367360283      -4.09041281014139       0.03896786247392
H        -3.34638124266229      -2.22374280954085       1.70219329822350
H        -1.55201704838513      -2.37363364039903       1.50996896884998
H        -2.65051770803951      -3.54800025032829       0.69240360039415
N         8.13723963856896      -0.29306573967856       1.17849384358698
S         7.91589699584479       1.30323789737521       0.89484083693597
S         8.31944300471950      -1.35656317474709      -0.05133752370563
F         6.37209034359927       1.55051477630783       0.29827665913239
F         9.75666955415647      -1.03998628973332      -0.84977728553054
O         8.08394356869599       2.06858938292694       2.17601100157605
O         8.91203717861377       1.78830104394444      -0.12041149579889
O         7.18165533428626      -1.21293743312205      -1.02238725561800
O         8.34626938197562      -2.75571366264732       0.49387253717531
