39
C11H18F2N2O4S2 optimized with DFTB in AMS.
N         2.05647951616804      -1.73797695358856      -0.06106687112155
C        -1.59967553968317      -0.72973114607677      -0.37895054115968
C        -0.16805115312815      -0.71572540085452       0.16502002971234
C        -2.47526230612707       0.29764550096641       0.34436339055573
C         0.68328660672232      -1.74465115722750      -0.57830398104307
C        -3.90654008171186       0.28496381294673      -0.20182685061062
C        -4.78593417932506       1.30524636813938       0.51860413136825
C         2.49411874312910      -2.75294636537584       0.69650627847684
C         2.86993195714309      -0.72922771370397      -0.40943412016194
C         3.79614853867944      -2.77359317811503       1.15311113807404
C         4.17771125375342      -0.70191206826644       0.02624090477384
C         4.65620515408162      -1.73797126772504       0.81650115706338
H        -2.02542575491283      -1.73034017798730      -0.25188099517219
H        -1.58057777341310      -0.50772450338398      -1.45063595360159
H         0.26742472337381       0.28088428934245       0.04066699761769
H        -0.17029010189475      -0.95105481885719       1.23445533067949
H        -2.48995103454073       0.07332051951678       1.41662367650933
H        -2.04379910408065       1.29670007947669       0.21833146566158
H         0.73709938368667      -1.52019379611994      -1.64658204322977
H         0.27790167603429      -2.74935630823431      -0.45196503876545
H        -3.88827897453441       0.51124887757249      -1.27303487780261
H        -4.33341366959712      -0.71590305138398      -0.07857227914531
H        -4.38622569043740       2.31231482626131       0.39171652391903
H        -5.79695766987662       1.27913184009193       0.11201035058784
H        -4.83453775153987       1.08308430757734       1.58555340999848
H         1.79360135214793      -3.54997982562545       0.90814893972641
H         2.45821633712840       0.03734211230899      -1.05276419366465
H         4.13432261101300      -3.61103629792773       1.74951485012409
H         4.82150563339391       0.11263224406095      -0.27919219110986
H         5.68653338679161      -1.74521062213769       1.15012517213668
N         2.83723061477725      -4.07666203047469      -3.62047187135125
S         1.59517354476088      -4.51791059036259      -2.73687403237177
S         3.57413117106719      -2.74537189341745      -3.19466535646010
F         0.45728401630905      -3.37839829233195      -3.03966911262437
F         4.28575956105518      -3.11752168110200      -1.75756579040490
O         1.05436356212812      -5.71476450323392      -3.27732793367732
O         1.75854564379283      -4.41815073362123      -1.30949783798393
O         2.73823316570994      -1.62532416386771      -2.83999330290802
O         4.66717369185567      -2.51837843825872      -4.07410557561509
