46
C14H26F3NO2 optimized with ForceField in AMS.
N        -1.62695444343813      -0.29651524724891      -0.17754437286376
C        -1.90448323541226       1.11827901223736       0.21680165590902
C        -2.63835188416987      -1.21289308772213       0.43836706108244
C        -0.28964499293348      -0.71995969398263       0.35642884157880
C        -3.34865084825291       1.56556102445160      -0.07072723855470
C        -4.10192820525482      -0.81151686369628       0.17830084848967
C        -4.35449041715025       0.63290031117001       0.59531641982932
C        -1.64131719298415      -0.44791375668352      -1.65812345062818
C         0.93385935477407       0.04389194307666      -0.20629242353357
C         2.23292888401409      -0.47973256837437       0.42155679788985
C         3.45814790843521       0.25825396026080      -0.13202084484564
C         4.75022360173252      -0.28213772578232       0.49228652709329
C         5.97893370057540       0.42281172927046      -0.07467608616313
H        -1.23416242775780       1.81974950334187      -0.32548061957533
H        -1.71196599887383       1.25985656223296       1.30520693678077
H        -2.50322209187026      -1.24739466513598       1.54493548521484
H        -2.49411122887938      -2.25449137184104       0.06985731455395
H        -0.27379862157926      -0.60759627867785       1.46578497476433
H        -0.13010146159847      -1.80456291204231       0.15186852146597
H        -3.49556629281630       2.59301631914810       0.32675205274958
H        -3.53399944286812       1.60742900652847      -1.16490219813352
H        -4.37666284279540      -0.95799898720786      -0.88638081032667
H        -4.76742771431408      -1.47581448990334       0.77096162386610
H        -4.27299144460932       0.72232888929758       1.70077975312566
H        -5.38468397263567       0.92787649356024       0.30081418643428
H        -1.00783510198330       0.31881979774996      -2.15242814977868
H        -1.27922146377928      -1.45583781351382      -1.96020851515663
H        -2.65364000683218      -0.31878510604094      -2.08646989492706
H         1.00697697300460      -0.09512764721572      -1.30419702105514
H         0.84964486888991       1.12590955530210       0.01508614034948
H         2.19113369436020      -0.34760316763503       1.52421619288484
H         2.33212608553358      -1.56603763761772       0.20459922375538
H         3.36872468115559       1.34413086854137       0.09049481690830
H         3.49944098391520       0.12566327683284      -1.23569649458112
H         4.83758372538633      -1.37158910669339       0.28861535248070
H         4.72495352311575      -0.13126236326422       1.59344751823491
H         6.04228160870887       0.26651077262264      -1.17269279474579
H         5.93386208664509       1.51171765752275       0.13975527267054
H         6.89490905103467       0.00599067381719       0.39511568167223
C         2.33587299638689       2.81951340935408       3.31618849760094
O         1.80808814103518       1.72941425007730       3.16468196097081
O         2.86865043688421       3.08788223190839       4.38103217864990
C         2.32863792012866       3.83062775966019       2.20895755235712
F         1.65718502512424       4.96495214188380       2.62576496186428
F         1.69786447945100       3.32296341917393       1.08752366975477
F         3.62937637939726       4.16549738425680       1.88057638688683
