23
C7H13ClN2 optimized with ADF in AMS.
N         1.10633202620174       0.47867507970675      -0.51337781520395
N        -1.07100667277864       0.48238349283261      -0.55867162241065
C         0.02780652157078      -0.11255873214719      -1.07067223253285
C         2.48672838979265       0.03906408085540      -0.72362500062635
C        -2.44280029856195       0.04526378135351      -0.82462800681220
C         0.67833752610611       1.34957927265776       0.47593858784147
C        -0.68156781201306       1.35214380679222       0.44721214707803
C         2.98392237921952      -0.81988803391443       0.42991656050699
C        -2.99958495472090      -0.78481688796773       0.32270842518522
H         0.04497936002146      -0.75181104751921      -1.94070898267318
H         2.48918036444306      -0.53625193341165      -1.66043951106001
H         3.10193816753402       0.94113970077629      -0.87403223935327
H        -3.04530348584359       0.94625920855085      -1.02511824603709
H        -2.40323875317401      -0.55275739958741      -1.74616908615912
H         1.37563160553993       1.89582514536895       1.09784233358041
H        -1.40219436926735       1.90124382855400       1.03931048499516
H         3.00663843709998      -0.24721320410064       1.36898428841862
H         4.00434340887546      -1.16696926065210       0.21051960253262
H         2.30994226221843      -1.68484706336914       0.54639459212509
H        -2.33648553168924      -1.64967880392938       0.49015151749125
H        -4.00969871335493      -1.13331799490268       0.06142521312688
H        -3.06644083646738      -0.19076553217044       1.24636059798443
Cl       -0.00582466385208      -2.56544113677635      -0.21885692459753
