36
C8H14F6N2O4S2 optimized with ForceField in AMS.
N         0.58295856351044      -0.00734623785704      -0.00554991759338
C        -0.31169590512720       1.05981894236375      -0.53155945653943
C        -0.30674692929706      -1.08025059928409       0.51784114215899
C        -1.72621862002679       0.73094592929075      -0.09238707337876
C        -1.72158683070168      -0.76649551710901       0.06676947256350
C         1.44134802477201       0.52613248367621       1.07874058569244
C         1.44747832157961      -0.53548392118833      -1.08743993174543
H        -0.30368506338041       1.10090325275059      -1.64606437832116
H        -0.03193613652972       2.07933265844640      -0.17823700451021
H        -0.30733823604185      -1.11480115458546       1.63274698780635
H        -0.01466402042296      -2.09872748321481       0.17246335557921
H        -2.48335545565869       1.06601658589274      -0.83423202263224
H        -1.92804459167843       1.20318690360441       0.89162088133216
H        -2.47827049690071      -1.10073213714529       0.80982630521651
H        -1.92077111500192      -1.24943896683298      -0.91547601540900
H         2.12603505151466       1.31442881928358       0.69293870180541
H         0.82448556864231       0.97691047725872       1.88900049162903
H         2.06174172922645      -0.28236856548955       1.52646572436833
H         0.83531132045195      -0.98731304873128      -1.90053302490412
H         2.06604590273734       0.27625270586713      -1.53183935342422
H         2.13397329146889      -1.32152398907461      -0.70038505479583
N        -4.63744584902213       4.31421233473200       2.88981299620401
S        -3.47692686632580       3.15721643570753       2.93096555346039
S        -4.30921707650807       5.88020807509181       2.53153421090615
C        -2.88224027381471       2.97966045238691       4.60017361111626
C        -4.63322716472879       6.16689886178625       0.80368559006064
O        -4.06612445592607       1.84932356806166       2.48463754143965
O        -2.33114694606330       3.52845434530277       2.03128862489195
O        -2.87161859073846       6.20325844000413       2.83037427883052
O        -5.20253742194246       6.77147972710149       3.34636102637848
F        -1.92922475872075       1.97960725098899       4.64787180015427
F        -3.93439713116672       2.64974671049807       5.43337540420223
F        -2.31940708943907       4.16891696397152       5.02218656041082
F        -4.34273555018993       7.48143009065255       0.49042968935171
F        -5.96558664931515       5.91615245549928       0.53515671356913
F        -3.84590373213481       5.32875913089320       0.03733303082562
