19
C7H10ClN optimized with DFTB in AMS.
N         0.24592119312271      -0.00174721675025      -0.28636745682266
C         1.69854852447560       0.08396238227608      -0.49662697158192
C        -0.51618191282109       1.09200377510801      -0.44751165318477
C        -0.28201957424691      -1.17205901671740       0.10115610110591
C         2.40136025408999       0.22516139652962       0.84814988255833
C        -1.87434746605126       1.03676938189829      -0.22073490078221
C        -1.64071467527298      -1.27504954178774       0.33429017601266
C        -2.45307521420203      -0.16320747051480       0.17975700792427
H         2.02183136774240      -0.84721642282710      -0.97596447991282
H         1.90043649599973       0.94061783247701      -1.14378619002804
H        -0.01917585303336       2.00143818265012      -0.76390234536324
H         0.42468061024636      -2.01818526901343       0.17400888747843
H         2.03987813559898       1.10063257047385       1.38776189200211
H         3.47055527833533       0.32933486988925       0.66963527723217
H         2.23433755409290      -0.67068168867582       1.44473858531251
H        -2.47317624193735       1.92806115614345      -0.35864702112508
H        -2.05045869464162      -2.22999549323500       0.63728522365440
H        -3.51942960895634      -0.22233510578232       0.36183605967150
Cl        2.12942854935896      -3.02183964174183      -0.13550380775157
