43
C11H24F6NP optimized with DFTB in AMS.
N         1.99565319805196       0.18134395325461       0.17989056776530
C         2.06542315365068      -0.75581796347201       1.34747302328292
C         3.11156359670024      -0.29424378966808      -0.69720697100825
C         0.69260400005594       0.08422965642033      -0.56417057780223
C         3.55217765715096      -0.97137341187791       1.60242755081737
C         4.23840170857091      -0.68960107636811       0.25594597467693
C         2.23881931863843       1.58007561232996       0.61117795174464
C        -0.52032870279542       0.51501952638913       0.25779364715610
C        -1.78922963254816      -0.11117003096169      -0.33583072521233
C        -2.99236563979457       0.10877235167576       0.58474446763551
C        -4.20733211747271      -0.67794040251413       0.08395760407625
C        -5.41632127955843      -0.47252622296175       0.99444494909048
H         1.59555295948202      -1.68847329813895       1.03954303393802
H         1.52949104982819      -0.33861228825734       2.19781717037067
H         3.38413220086427       0.49259788316805      -1.40139068116642
H         2.74268688030063      -1.16336863558022      -1.24564009107693
H         0.58711733590541      -0.96131895321625      -0.85832779850639
H         0.79691558988778       0.69665115255363      -1.46429253909043
H         3.71907179818232      -1.99823036244332       1.93140014306642
H         3.92745826130595      -0.29908021698160       2.37707721214988
H         4.96930496451508       0.11640898184490       0.35048419623716
H         4.75439651103596      -1.57233964278874      -0.12460030990002
H         1.47442449013730       1.86587317499464       1.33012060767516
H         3.22025674147461       1.65053970685107       1.07443668129188
H         2.19226035635517       2.23306767982578      -0.25892160818352
H        -0.41358920615553       0.16547156870252       1.28642925315066
H        -0.60594739927605       1.60618754352914       0.27287179058851
H        -1.62895171138435      -1.18621343445708      -0.45338454117007
H        -1.98530394297657       0.31435303590539      -1.32571591672727
H        -3.23125428178799       1.17719864803387       0.63795022169515
H        -2.73647997446356      -0.23038282506085       1.59376393750584
H        -4.45719680267553      -0.35899922341324      -0.93408320048862
H        -3.95317841002936      -1.74199751604735       0.05136568941714
H        -5.69604336653179       0.58188841491067       1.03117301347236
H        -6.26622277962241      -1.04444788829349       0.62129478619768
H        -5.19087273712084      -0.80717934641342       2.00779496744358
P        -0.38212058263339      -3.51653921235511       1.26304662112844
F        -0.25882436834958      -4.99264824125976       0.59639718486255
F        -1.88480956888815      -3.30930457742649       0.64284140824855
F        -0.97721714891417      -4.11964049759774       2.64752098034710
F        -0.46023617138077      -1.96188284999091       1.90322233208483
F         1.17142894583062      -3.62462419179358       1.84726785607236
F         0.26371890733490      -2.83680187315034      -0.14892343765695
