25
C7H16ClN optimized with DFTB in AMS.
N         0.09988041765407       0.21231020909860       0.03151300015741
C        -0.52228318498276      -1.14081327389586      -0.14661117416883
C        -0.86155176246960       0.92016786242428       0.93575772976218
C        -2.01765349606666      -0.86881043420807      -0.24955083461143
C        -2.24650048922198       0.46638683142425       0.47512124791743
C         1.44857364781059       0.12258411169204       0.67112783248018
C         0.18966863244944       0.94690155137261      -1.26158477965828
C         2.46235982908746      -0.64424709179133      -0.16584178768492
H        -0.27520553926494      -1.73744445117085       0.73488653721349
H        -0.13426728478859      -1.60260865391111      -1.05828721325548
H        -0.70387627063125       1.99689946070038       0.86270306349846
H        -0.66103197692096       0.59391178730950       1.95933630464960
H        -2.58405143116302      -1.68031574782632       0.20906108910277
H        -2.29997147690058      -0.79945167632219      -1.30309321970535
H        -2.69082325125900       1.20337313861379      -0.19667771421644
H        -2.90599908780726       0.35257782319126       1.33752680078484
H         1.79122828429641       1.14661680492387       0.84535793712929
H         1.31382747177357      -0.37057567836328       1.63795484734253
H         0.75384351509731       0.35259646642348      -1.97604706527715
H        -0.81064107654676       1.08530180970113      -1.66062373922507
H         0.66768886883940       1.90931478424496      -1.08496073877933
H         3.38411336664056      -0.72331000555782       0.41001111609339
H         2.10835857238099      -1.64801824809403      -0.39256100829844
H         2.68332198605299      -0.12936297593581      -1.09848325433254
Cl       -0.56973748465942      -1.24149948594350      -3.23894829741830
