32
C6H12F6N2O4S2 optimized with DFTB in AMS.
N         0.67452744415256      -0.18235696408409      -0.01671136762958
C        -0.49201912924307      -0.93398713380675       0.51356267161423
C         1.64215376076445       0.06829873013805       1.08870865655126
C         0.22771957031070       1.12268653495348      -0.57155212285564
C         1.31756793395900      -0.97845768019360      -1.09947185085718
H        -0.13865353540013      -1.87501806354643       0.93073525167469
H        -0.97491028997145      -0.34237209360723       1.28913047309104
H        -1.19256559539733      -1.12621998582847      -0.29710737608711
H         2.40554084338807       0.75738190539674       0.73998847688287
H         1.10901626129168       0.50275171000799       1.93206986590804
H         2.11076362443634      -0.86996779550414       1.37595443509684
H         1.09746730944052       1.64312941014448      -0.96830201938046
H        -0.49533894533837       0.94455628895048      -1.36543364914380
H        -0.22678340628121       1.70973414507011       0.22429964383613
H         2.13176476745532      -0.39780338832105      -1.52376467594612
H         1.71693000979866      -1.89558809609093      -0.67309697634384
H         0.57404588099391      -1.20442224380755      -1.86176783597471
N         6.38280039586516      -0.65122812515206       0.09175787047017
S         7.57361790470083       0.25988769474729       0.73237881751923
S         4.93803564627459      -0.03847921665090       0.17294992763167
C         7.36512187442844       0.15826760726992       2.59802996694099
C         4.70737824097828       1.35342455369912      -1.08621807990360
O         8.80130245734224      -0.43160399828911       0.46112591146433
O         7.47089532980853       1.65891913141602       0.40438449728518
O         4.53903452423485       0.60515766080548       1.41433988680920
O         4.01206270905808      -1.03959446298708      -0.34055752351784
F         8.55907717868245       0.03568540068357       3.15576393538653
F         6.63577236714531      -0.89961666025541       2.92400266931004
F         6.78524603167596       1.24586863197304       3.06970189561275
F         3.37416140719715       1.40270655490127      -1.34958079894230
F         5.32667858816459       1.11298621221956      -2.22546685807950
F         5.05219133618383       2.53587432294821      -0.62952068242353
