29
C9H13F3N2O2 optimized with DFTB in AMS.
N        -0.35975108342945      -0.58239693912257      -0.62519538149339
N        -2.27885899504001       0.15429550511701       0.00426587569896
C         0.93873439282838      -0.66210218752095      -1.28298204852943
C         2.05293798581141      -0.20175560569063      -0.33968805960528
C        -1.19546614361070       0.45080659917972      -0.70590358139108
C        -0.91924653121097      -1.55500732366955       0.15892101586779
C        -2.13600588519039      -1.09122203450236       0.54948370462816
C         1.92621122983338       1.27456260971026       0.02891782139517
C        -3.47980570818080       0.97311397224404       0.04815760923569
H         0.89417796185519      -0.03510836280458      -2.17669034177008
H         1.09734501833053      -1.70092277291956      -1.58253985951502
H         2.03529484230826      -0.81472558080873       0.56679104172180
H         3.00671394734938      -0.37298110931255      -0.84626907711561
H        -1.06743399558102       1.34738977436212      -1.29335438031217
H        -0.41993080565018      -2.48621797150353       0.36158708033137
H        -2.89866931454463      -1.54105276617174       1.16076212831206
H         0.99034705820413       1.46014073528086       0.55739554969382
H         1.94999267669875       1.89551114344477      -0.86691087828053
H         2.75252324861601       1.56486154559493       0.67679717826915
H        -3.19283478748952       2.02260254403917       0.04828025495928
H        -4.06428338845064       0.77163461841414      -0.85041448478526
H        -4.05262619715442       0.72562903346246       0.94009439477435
C        -2.89958817476918       1.82144334988730      -3.45830105672271
O        -3.52049630148652       2.25808943480811      -4.39475189836888
O        -2.66424958544272       2.20439180684007      -2.30829925333094
C        -2.19277714363872       0.34180152938121      -3.71781785991945
F        -0.84258299452228       0.39348479250374      -3.48520873981960
F        -2.34554909598577      -0.20548949931309      -4.92304418695465
F        -2.65674769505749      -0.56888850493005      -2.81267873487351
