48
C12H26F2N2O4S2 optimized with ForceField in AMS.
N        -0.71915809001005       0.32134723591976      -0.15992841516817
C        -1.28746462451166      -0.45236385131377      -1.31157857900608
C        -1.84567617903152       0.74195710486171       0.73652061035175
C         0.26981177242391      -0.49232716163528       0.62998535582071
C        -0.08298056468621       1.55330258716011      -0.74311645163322
C        -2.14054790933545      -1.66245020025486      -0.89595933818565
C        -2.74502501322371      -0.42120204745233       1.20401340833304
C        -3.27840542928983      -1.22576657289813       0.02182577855522
C         1.54792290356547      -0.92388272962315      -0.12861752217810
C         0.65558803906365       2.47077521507695       0.26290277566809
C         2.46627563693262      -1.73155344562910       0.79720436740877
C         1.22700013057991       3.69993327967258      -0.44070680967782
C         3.73342469523117      -2.17520863451482       0.07635865497127
H        -0.49185585322442      -0.79658052887287      -2.00464882411645
H        -1.94293432386437       0.20771592187574      -1.92750120788959
H        -2.49905408252839       1.48291322598085       0.22070667981262
H        -1.46091677276435       1.23912568620412       1.65296696425919
H        -0.19936307252376      -1.41693166708967       1.01812007700854
H         0.57603007183054       0.06178517662142       1.54440518893904
H        -0.85772351269564       2.17341443160634      -1.25193824632502
H         0.63198054836077       1.27512895054614      -1.54962707777585
H        -1.52222798165009      -2.44370547928641      -0.40798843007165
H        -2.57632990774517      -2.12476041968704      -1.80807014360499
H        -3.60711373765017      -0.00374283457348       1.76804621901876
H        -2.20118500119669      -1.08756729007812       1.90552927112104
H        -4.00115115513626      -0.60504881806950      -0.55219080600839
H        -3.81700715239835      -2.12265965342054       0.39637444629065
H         2.11219856283821      -0.03993331312852      -0.48977654877136
H         1.28752931006285      -1.56358532668585      -0.99615194139657
H        -0.03369012488701       2.82553718291188       1.05523325018619
H         1.50321358268212       1.93799373545772       0.73949706775791
H         1.92983257326627      -2.63468083692742       1.16246254559190
H         2.75268248389568      -1.11302600690709       1.67595526680894
H         1.76053812289745       4.33602461467505       0.29682862819225
H         1.94675478440026       3.39449620184026      -1.22996874385748
H         0.41099311224017       4.29830890787383      -0.89907169250690
H         4.32385366463014      -1.29157608411822      -0.24818426123013
H         3.48101603825289      -2.79611871918756      -0.80943530744820
H         4.34958812170440      -2.78364299330487       0.77028176598416
N         8.95856922236987      -1.95776063451027       0.40478461934925
S         8.99794615971710      -0.51854693509112      -0.37264320213732
S         7.54735119799300      -2.60216958046613       0.92241468639908
F         8.86106137078597       0.71426767403204       0.75033098091640
F         6.68888006127600      -3.16315744884170      -0.39967030372862
O        10.30171991295320      -0.37904335529116      -1.10512088836620
O         7.85451911464406      -0.42246284351731      -1.34391344920005
O         6.73438200247505      -1.55409340970779       1.62985862582286
O         7.82606390128038      -3.74550193853242       1.85559428591619
