36
C10H19BF4N2 optimized with ADF in AMS.
N         1.90113615801154      -1.14163409760258       0.03831436525560
N         3.09716707497897       0.66313961010901       0.23371695669981
C        -0.52600618323314      -1.65762700904778       0.30244886273435
C        -1.22023037501695      -0.46555215032028      -0.34757996951265
C         0.80411159645628      -2.07063920386439      -0.31590279967626
C        -2.60033308169761      -0.21572698600283       0.26143908863620
C        -3.33058659336520       0.97288683918779      -0.35902599774078
C         2.03333889034225       0.12299567827475      -0.38379007660292
C         2.89780209690469      -1.42012487432691       0.94894126702712
C        -4.70793513895823       1.20752485406535       0.25834582218104
C         3.65293390291476      -0.28934023729002       1.06703983161467
C         3.54001961271110       2.04511500012274       0.10823924960884
H        -0.36169422249853      -1.49201673247983       1.37851748959470
H        -1.17786385646193      -2.54531637300510       0.24304320071564
H        -1.32420694823393      -0.63035350920828      -1.43797310002682
H        -0.62264073646770       0.45612883430224      -0.21690319845341
H         0.75904147198211      -2.12013254078915      -1.41667250814489
H         1.11312371304068      -3.04546049960593       0.08592827115396
H        -3.21486273400675      -1.12723469988362       0.14622505728458
H        -2.48820137629189      -0.05844052203773       1.34944005285642
H        -2.71211816481359       1.88220704149163      -0.24077529239686
H        -3.43454369420327       0.80698431648371      -1.44700863239124
H         1.39665370614777       0.62497768398504      -1.09825151096102
H         2.91904183687473      -2.38676843161281       1.45436908428495
H         4.51549160129976      -0.07583978350022       1.68559808443012
H        -4.62522900615242       1.40323412879136       1.33931426812631
H        -5.21883554579081       2.06628746868040      -0.20406006098672
H        -5.35140903358046       0.32243491117754       0.12968559192488
H         4.60043550349229       2.06985838547746      -0.17270681609745
H         2.94852358464254       2.54233399083547      -0.66835884333404
H         3.39190771669994       2.56315817203377       1.06532018269210
B         0.97337824296854      -3.40750548199216       3.01903738742711
F         1.30052459893843      -3.95442221702468       4.25973429294402
F         1.89888983478433      -3.90904697800198       2.00333580683016
F         1.12236605935476      -1.97408525986253       3.04258330223628
F        -0.34028011777304      -3.73034196445945       2.61137369656617
