52
C14H23F6N3O4S2 optimized with DFTB in AMS.
N         1.08633670072017       0.11701433706769      -1.30237934550445
N        -0.63995646919529      -1.03396931427656      -0.73633718052078
C         2.46443461437897       0.46244820974636      -1.63623029817949
C         3.22873095159473       0.87274147052629      -0.37312472262508
C        -1.48595675795877      -2.16606067175783      -0.36846776086628
C         3.29979551456785      -0.26219547569194       0.65174628401476
C        -1.41576289601013      -2.41922693877147       1.14110546057286
C         0.63427353665786      -1.12048406126608      -1.10897862111204
C         0.08374806149775       1.01138872574475      -1.03856029371500
C        -1.00701252693584       0.28306040946444      -0.68138131577911
C         4.10425270504353       0.14300314022846       1.89006754814320
C        -0.03763975771884      -2.91673347445579       1.58782979965289
C         4.13255840015042      -0.99271690535333       2.91088011817885
C         0.00682474423398      -3.16744408682495       3.09232568396404
H         2.44156179775240       1.28466700477737      -2.35604225363418
H         2.92377524205566      -0.41184909791423      -2.10196670574487
H         4.23826164692561       1.15987175878799      -0.68035184391188
H         2.74676924807695       1.74996359574925       0.07034396521037
H        -2.50879997251680      -1.92593098004690      -0.66880601400416
H        -1.13872746049815      -3.03569123925537      -0.93162359908648
H         3.76106880646498      -1.14035897672915       0.19234576459014
H         2.28523061674781      -0.54074958178761       0.95591541695827
H        -2.17259103889333      -3.17204893961980       1.37967897301157
H        -1.67622944153466      -1.49817412314747       1.67299717637283
H         1.19973555766220      -2.04148841418724      -1.21309421338370
H         0.22353850325450       2.07399798284569      -1.13310525362493
H        -2.00058990014573       0.59054176166882      -0.40577223528031
H         3.65702449759515       1.03586646352515       2.34169026660029
H         5.12734514007471       0.39494292257830       1.59174662478760
H         0.20353705668276      -3.84060908134960       1.05465246631398
H         0.72214956591067      -2.17390060942510       1.32489550193498
H         4.57265589287408      -1.88716669662139       2.47080005077823
H         3.12098101836604      -1.23362856464493       3.24041757455519
H         4.72279617404144      -0.69949088314001       3.77918954574584
H        -0.20614926224155      -2.24988782359285       3.64316019263510
H         0.99963321759846      -3.51908757306021       3.37116888637828
H        -0.72493663334053      -3.92407918206770       3.37760416427279
N         1.76229835106547      -3.85461734256198      -0.83236522170519
S         1.28694557518401      -4.56764926623637      -2.19429688130535
S         3.20423443305550      -4.24291784729793      -0.23444309553990
C         0.68864006867933      -6.28415400093394      -1.73767865940022
C         4.46840635226782      -3.44626103804907      -1.37159952383214
O         0.07353451041325      -3.86443764458686      -2.56539738085955
O         2.30850970151920      -4.73613932056788      -3.19445294049407
O         3.50683425876078      -5.64748848639024      -0.21547621266100
O         3.32818472541298      -3.48388748530773       0.98685071133156
F        -0.30067250097920      -6.62170121896609      -2.54939763389246
F         0.22449687611002      -6.25828309775560      -0.49446787051155
F         1.64868184226100      -7.17593977608750      -1.83101846365379
F         5.45206576884004      -2.93686245811148      -0.64351589390318
F         3.88015399984271      -2.43113657139989      -2.01934340970878
F         4.96950046432804      -4.28388598797053      -2.24782857426373
