43
C13H27NO2 optimized with ADF in AMS.
N         0.08176357419340       0.35304779353525      -0.29955309291869
C        -0.83015961367238       1.23837968648915       0.51983739171842
C        -0.58020730523145       0.05586822558990      -1.63877584873003
C         0.36312670782126      -0.92331796035757       0.47710537002460
C         1.37112506016514       1.09264587432484      -0.62193442410174
C        -2.22764254448086       0.66148677841385       0.70229488818653
C        -1.95645980219145      -0.56252032424228      -1.47961506804798
C        -2.87668582842276       0.32853237249860      -0.64216022218507
C         1.33497490786909      -1.88825085542748      -0.17283355610319
C         2.25026023528557       1.44561088765338       0.56444744399605
C         1.50563484904005      -3.11952533553112       0.71338052597371
C         3.55941230876150       2.03341193925620       0.02616969438210
H        -0.33390255262456       1.41407067958650       1.48482868983044
H        -0.87957417495584       2.19392573102771      -0.02675237561274
H        -0.66965545752064       1.04101973770177      -2.12827649456388
H         0.14962090988810      -0.54526908513889      -2.23123472369594
H         0.72709234392019      -0.59555285418053       1.46404112693894
H        -0.60800451645054      -1.41066915077429       0.63439056573212
H         1.95604160351646       0.44408219924004      -1.31818226487252
H         1.05506856901894       2.00211264082588      -1.15991022130721
H        -2.19162835545530      -0.23396159542610       1.34492302720157
H        -2.82262855367103       1.41226473773990       1.24974704800407
H        -2.36680495930873      -0.70303473773269      -2.49319517559757
H        -1.88475968664631      -1.57198821410118      -1.03958197345079
H        -3.85722192324192      -0.14952077296576      -0.48371707660959
H        -3.05993105914164       1.26981512327916      -1.19384442409684
H         0.98255466525411      -2.17733396413274      -1.17556840600246
H         2.30798653020162      -1.40720407135033      -0.36188961705061
H         1.76516937893207       2.15824121351144       1.25486847188058
H         2.49248670354510       0.53635421649094       1.13853154431768
H         2.20306957003103      -3.82627355275597       0.24082412460421
H         0.54962568648230      -3.64683141587894       0.87087008946125
H         1.91650797505071      -2.85586805104352       1.70221433554150
H         4.25756371557263       2.24760544105008       0.84821888218044
H         3.37607238126274       2.97247948546060      -0.52022917230405
H         4.02365899905348       1.31888440210837      -0.67082958151021
C         3.68897309635824      -1.41778485378619      -4.30964335894427
C         2.79126016709832      -1.02055103970614      -3.13294735853991
O         1.55352010684054      -1.27614615871910      -3.26158286832717
O         3.35788932903079      -0.47872072512088      -2.13166421872427
H         3.69815120654738      -2.51463603088443      -4.40634743611630
H         3.26883600949762      -1.01624295551058      -5.24410588378305
H         4.71668689717704      -1.05659600281686      -4.17129448697813
