55
C17H18F18NP optimized with ForceField in AMS.
N         2.37014869956140       0.03219705994493      -0.52915220030663
C        -1.44662277159503       0.05112818953422      -0.70033110018704
C        -0.04613126852321       0.01543288409941      -0.07918096019182
C        -2.52673095784151      -0.01332525970745       0.38619030247087
C         1.04274456191280       0.07775395457289      -1.15463387940023
C        -3.93077383631354       0.00911775078167      -0.22773000552652
C        -5.00484716511807      -0.05839115885667       0.85436083817400
C         2.96398011221289      -1.17606997065426      -0.28425879999840
C         2.98952101181847       1.19615416878981      -0.16334989938844
C         4.21314996376349      -1.23923142871139       0.33853354650782
C         4.23869566238703       1.16846288786637       0.46222946232551
C         4.85171611480023      -0.05816187620604       0.71327499286415
H        -1.56524219049684      -0.81370372502423      -1.38991682361540
H        -1.56684153283152       0.98987750746733      -1.28512407369873
H         0.07496469449487       0.87939355176469       0.61078957926743
H         0.07459295861666      -0.92237051716855       0.50657500958133
H        -2.39942910819115      -0.94778137458714       0.97647559676152
H        -2.41129975140052       0.85561542854795       1.07133368279798
H         0.92966460634676       1.01091800656155      -1.75021691665657
H         0.92314660808716      -0.77214001080047      -1.86352137428972
H        -4.06907799232715       0.94355795181188      -0.81423755853751
H        -4.05506232730960      -0.85855413057948      -0.91187077818328
H        -4.91915628963780       0.81305195235152       1.53811021122406
H        -6.00986002816221      -0.04220892650644       0.38255612575882
H        -4.90307831491076      -0.99626948105015       1.44119537424255
H         2.46888201079875      -2.09891064569139      -0.56280839845782
H         2.51452725971120       2.15303156415863      -0.34542487217255
H         4.67902242244053      -2.19670444155987       0.53278930971040
H         4.72420629060011       2.09069364516580       0.75404055218506
H         5.81785026467613      -0.09360321312107       1.20030646242488
P         2.62035600827123       3.88628096815908      -5.67728354153550
F         2.28780006388452       5.01054048798852      -4.41662594119192
F         1.82908657617503       4.32205729723242      -7.14574368859345
F         3.72821057708361       3.41387100565413      -4.44783072124770
C         3.65328832415573       5.41871757339730      -6.26540384143743
C         0.87214104477918       3.42439263296547      -4.98536401560233
C         3.27790277057234       2.20120484580199      -6.36113022339485
C         4.74681314318594       5.96144046404793      -5.30551289434110
C         0.09126941214398       2.31856329432723      -5.72570354819319
C         4.70704284946181       2.18656624933387      -6.94088909479323
F         2.78923895731666       6.48007565145299      -6.50680026096843
F         4.26778186489083       5.12606702424435      -7.46644372289770
F         0.04870651649159       4.54665263458607      -5.01029114384705
F         1.00651187139426       3.01348867939588      -3.66663191178104
F         2.45028034676746       1.78793475171241      -7.39027571870252
F         3.21267470445893       1.23281419529974      -5.36790846622658
F         5.47141958524427       6.93656728750407      -5.96822179432066
F         5.63112733942282       4.98263900713970      -4.90571294508996
F         4.19030373487591       6.54849096691359      -4.18310730048849
F        -1.18296233129155       2.24287342067286      -5.18960068649554
F        -0.03530044761562       2.60171990355072      -7.07324802052648
F         0.68141204646545       1.08155342338464      -5.55889928402391
F         4.74090633166873       2.80644217362116      -8.17582964396145
F         5.10086161329207       0.87280136104920      -7.12680847281170
F         5.61703107943526       2.78167058917059      -6.09587219791351
