42
C12H23BF4N2 optimized with ForceField in AMS.
N         0.21901541675389       2.31359945697907      -0.21093985165739
N        -1.85560434673309       1.50884287108360      -0.19304553422278
C         1.60963755970270       2.51394347002123      -0.61762030541103
C         2.53877099428188       1.50051453671681       0.06904167832829
C        -3.04225394969361       0.75152493895321      -0.58905904227096
C         2.10882872978795       0.05419353712329      -0.21537125467679
C        -3.07419805923159      -0.62350579948537       0.09426679319746
C        -0.74533220239806       1.70609729847861      -0.93072729385678
C        -0.30291825172682       2.51714150318084       1.01576644373106
C        -1.58960336097422       2.01954756701445       1.02640640951717
C         3.09265641406612      -0.96138466484146       0.36845474773953
C        -1.88898549576930      -1.50179373551460      -0.33144315822315
C         2.59647613157831      -2.38814933296924       0.14347357427764
C        -1.95043392884746      -2.88071071523730       0.31586413082847
H         1.92488759308150       3.54694572765398      -0.35613307393236
H         1.70275720673713       2.40424235587950      -1.72069723795883
H         3.57351705069840       1.66065677696977      -0.30464457752614
H         2.53451828910838       1.68143878906137       1.16645526286195
H        -3.95181539413346       1.32585239770544      -0.31036147708308
H        -3.05848100633560       0.61482020275798      -1.69304157532541
H         2.02595281471484      -0.10209252414100      -1.31386581406657
H         1.11731492956302      -0.11897348938175       0.24830895717398
H        -4.02296683366524      -1.13232326068442      -0.18310008892384
H        -3.06522280379721      -0.48843463579438       1.19829667397697
H        -0.61365606745189       1.34268835048567      -1.94266218519360
H         0.22909881572354       2.94595259761145       1.85522460504438
H        -2.26189646311151       1.98923549061240       1.87419692187571
H         3.20843688853810      -0.78896011751137       1.46091529114378
H         4.08283738176155      -0.84175838355890      -0.11929655480502
H        -1.88266051476016      -1.61983054309265      -1.43693717267334
H        -0.94021614947222      -1.02100123407044      -0.02450574219705
H         2.50045411058531      -2.59607267786814      -0.94405126998935
H         1.60847324477597      -2.53558562701500       0.63104180963040
H         3.31816087577434      -3.10873294193934       0.58194434682654
H        -1.94761379274913      -2.78770955292340       1.42303109449323
H        -1.06148065308201      -3.47265588719584       0.00979067789968
H        -2.86637443943201      -3.41830184129824      -0.00892460674095
B         7.92091085925667      -0.21220763347635       0.18260833867022
F         8.20541159779564      -0.43753088283237       1.55566490623093
F         8.95897102856055      -0.76492145832099      -0.61345735725532
F         7.83010687400255       1.18431272086862      -0.05961913605833
F         6.68908732621625      -0.83195860040472      -0.15280519879930
