51
C13H28F2N2O4S2 optimized with ForceField in AMS.
N        -1.54429007742639       0.09908470956442      -0.08904738488464
C        -2.55464161167415       0.49552587140792      -1.12410906628060
C        -1.78838715899311      -1.32817802087154       0.30116421108185
C        -0.19697779266789       0.19362803774696      -0.75090660055213
C        -1.62379017370295       0.97532694955427       1.13192303087781
C        -4.01512505796418       0.27870558143070      -0.69472132054661
C        -3.23460515669122      -1.61846689159897       0.75207510938540
C        -4.24600605532516      -1.17683890483812      -0.30192938406674
C         1.02365240978355      -0.12425135901659       0.14878888422366
C        -1.27430253282277       2.45924382809603       0.91405137176820
C         2.32876083624640       0.03709595232337      -0.64256215894437
C         3.55147467652371      -0.29818506997052       0.22026583491409
C         4.84917043733662      -0.10468437383608      -0.57338766427389
C         6.07177507603580      -0.45902235908654       0.26800537603644
H        -2.40347405234662      -0.10131480186380      -2.05429758831201
H        -2.42688467941538       1.55362833925931      -1.43443386570544
H        -1.12279740712185      -1.63141930011274       1.13827971682084
H        -1.56173249875567      -2.00993895556746      -0.55104919697687
H        -0.05310347371754       1.20512809469499      -1.19239552573743
H        -0.15355570152786      -0.50299818449585      -1.62051594046227
H        -2.63647301706080       0.95324284406368       1.57857285642172
H        -0.96442379027876       0.58452913611219       1.93670899183569
H        -4.68084060023728       0.52789715778677      -1.54923663458486
H        -4.29726846209969       0.95721686721292       0.13638174004250
H        -3.45373216512961      -1.12515974608433       1.72199115697391
H        -3.34569335151671      -2.71218473437819       0.91709028737762
H        -5.27609699807117      -1.29160992572951       0.09778578488259
H        -4.15245936953048      -1.82561153676722      -1.20068361961563
H         1.06419730680191       0.56408157129053       1.01709026910714
H         0.96796272303122      -1.16848766260693       0.51914200981184
H        -0.23118247414097       2.59472293223361       0.56645986702923
H        -1.97615502831370       2.94787012051034       0.21018946008220
H        -1.36342361228818       2.99176611484749       1.88436270264627
H         2.41080730378571       1.08662895753927      -1.00237412832448
H         2.30984090099483      -0.63806568495829      -1.52645041626644
H         3.48181162951787      -1.35448028581069       0.56203764634110
H         3.56582818939597       0.36312153172079       1.11464502430261
H         4.83632610224291      -0.75159717342724      -1.47760795298791
H         4.93300783449137       0.95477305098047      -0.90031991205968
H         6.02946461720649      -1.52411259235492       0.58082868838163
H         6.99344868467666      -0.30216837267111      -0.33155331024340
H         6.12100448332441       0.18752863222715       1.16998379117085
N        -6.28636071688090      -4.72791610866371      -0.67151813357004
S        -7.10349693242294      -4.22682639085017       0.65438216297654
S        -5.19486943003787      -5.94335459374656      -0.58528279318160
F        -6.06855824101940      -3.36765590262495       1.65027603482869
F        -5.99603426827602      -7.38766660520468      -0.30994145065790
O        -8.24439357658438      -3.34373862816101       0.23705609772518
O        -7.63119211376771      -5.41277185392867       1.41177297553235
O        -4.23962359126392      -5.69292583156156       0.54738029409672
O        -4.43562195282221      -6.03043281041521      -1.87817684623976
