41
C11H24BF4N optimized with DFTB in AMS.
N         2.24703874235331       0.07214809982615      -0.20655352601948
C         2.43569622685167      -1.29390297956017       0.37480432342406
C         3.28116582137906       0.15532105554489      -1.29685013472755
C         0.88805487204299       0.26328416838500      -0.80050457599579
C         3.94468690519122      -1.51349871652224       0.36139178715794
C         4.45541554331747      -0.70673768091708      -0.83815286846063
C         2.52192153286824       1.10403272909829       0.83130563653474
C        -0.25943103285394       0.12658273085746       0.19839294347589
C        -1.59874985098836       0.21585179534627      -0.54304385686459
C        -2.77441739704421       0.09746963312935       0.43160506325574
C        -4.11496182351612       0.18638975152466      -0.30462045992891
C        -5.28965527152644       0.07040960590020       0.66491872437079
H         1.92316913576944      -2.00900596101597      -0.27429792461238
H         2.00135659237558      -1.32978693875135       1.37381198331493
H         3.56134058711317       1.19951820336413      -1.43627202627771
H         2.83387976379329      -0.23416382318207      -2.21433762322644
H         0.77507984476153      -0.48177187738688      -1.59326183321454
H         0.88050630023324       1.25864076693456      -1.25265796315166
H         4.17289260044903      -2.57642293329527       0.27121406758328
H         4.39699362230836      -1.13594493874944       1.28074879166839
H         5.29076804471210      -0.07272165109107      -0.53670850220487
H         4.78083939897843      -1.35859888397928      -1.65103839868770
H         1.79057970409894       1.01895273776518       1.63115608575443
H         3.51999539602302       0.94327545355275       1.22829938279657
H         2.47741945648717       2.09121090960483       0.37790362265710
H        -0.19546172649816      -0.83372396425853       0.71733959506418
H        -0.21164792878478       0.92167830993425       0.94626925739707
H        -1.65710542274285      -0.58477938892550      -1.28822763158805
H        -1.65652950433509       1.17202999299785      -1.07358606723192
H        -2.71120096523278       0.89859746156904       1.17559056356760
H        -2.71073291336624      -0.85803624680546       0.96332359897822
H        -4.17428158436427       1.14162035504396      -0.83689907902421
H        -4.17505680881114      -0.61534910626800      -1.04838119331997
H        -5.25762661873430       0.87370681268015       1.40202015968677
H        -6.23095888359308       0.13660139453506       0.11941180089357
H        -5.25876184511159      -0.88478595395019       1.19070152068545
B         5.43171617815456       2.22390722646976       1.02999449366508
F         4.97147215186671       2.21009018991884      -0.32190294331251
F         6.65865862102737       2.80991310948140       1.12889862549074
F         5.47941907378494       0.85159556977299       1.43805854442947
F         4.45468368656253       2.86197317442146       1.80113185509695
