31
C11H18ClN optimized with DFTB in AMS.
N         2.40125966358009       0.01547223043452      -0.47488661729936
C        -1.40292869060378      -0.01077665246220      -0.68710883548527
C        -0.01566529463769      -0.05159738555296      -0.04099138612247
C        -2.50976899761740      -0.10521536760579       0.36762092977570
C         1.08419258072049       0.03879302316579      -1.10470914027225
C        -3.89826017795707      -0.06532704743374      -0.27849937000044
C        -5.00448888400403      -0.15960920714588       0.77110553314713
C         2.97371077169607      -1.24714376477495      -0.23008510513046
C         3.14551637507833       1.15657887687556      -0.38939820393338
C         4.15681813674646      -1.19416712922430       0.63649366201918
C         4.35179256033660       1.16750607792980       0.22527897519089
C         4.84161619410029      -0.04642936978724       0.80123549016917
H        -1.49926310168366      -0.84226172130044      -1.39373038297226
H        -1.51443474261259       0.92139429691269      -1.25176968503225
H         0.09532198220620       0.78239008697061       0.65921737373395
H         0.10079998575972      -0.98146116407416       0.52432924734062
H        -2.39589675209908      -1.03723057498742       0.93187917631032
H        -2.41117216736388       0.72625201782154       1.07406128886031
H         0.98227553402241       0.96867558590583      -1.67156889000048
H         1.01818269218224      -0.80430078139109      -1.80058320074450
H        -4.01047092438339       0.86678541670717      -0.84273734928467
H        -3.99493328978548      -0.89694722106272      -0.98470912913118
H        -4.93756632889308       0.67285616217604       1.47304360794554
H        -5.98168886891120      -0.12936069155053       0.28861787705156
H        -4.92197581134624      -1.09241555249067       1.33075056204469
H         2.22287440087478      -1.97398718669414       0.08024091376066
H         2.68303889755450       2.05415137543730      -0.78490366307469
H         4.49236092379041      -2.13379138612721       1.05686671099104
H         4.91563111378662       2.08534766704649       0.31604841133060
H         5.74374054214437      -0.01659535183542       1.40151982417360
Cl        3.50210278731904      -1.99102386938249      -1.92557861756129
