40
C12H22F3NO2 optimized with ADF in AMS.
N         0.07296757590284       0.03043872841199      -0.39026026221922
C        -1.25242968320219      -0.08704168737253      -1.10509826910239
C        -0.34234956183204       0.44835443042425       1.00264160024431
C         0.95472125497490       1.07211625849622      -1.04503495689731
C        -2.21928494577870      -0.68467133694248      -0.07466696282798
C        -1.57002452025344      -0.40550270688839       1.30759622641685
C         0.74349373630391      -1.34577479729105      -0.31346192049435
C         2.23319770193178       1.35305209874807      -0.28540772547411
C         1.43640456172850      -1.80010331118607      -1.57488455578003
C         3.20483528274117       2.18619211787458      -1.12340905281927
C         4.51782237540422       2.39466167223429      -0.37066447215345
H        -1.11458652974070      -0.68591161950147      -2.01391443985451
H        -1.54540893235977       0.93431567970567      -1.38990799424345
H         0.50276894252783       0.30612693877180       1.68666646646689
H        -0.59726159436272       1.51795930559511       0.94093887068735
H         1.16854034045148       0.69840633573283      -2.05724211916598
H         0.32654169787031       1.97383995264879      -1.14088525610047
H        -3.20716991379608      -0.21220706902417      -0.17065198211836
H        -2.36035239569870      -1.76277155454110      -0.23606343745543
H        -1.27311687536908      -1.34107831446537       1.80236092206427
H        -2.24767478789359       0.12392775982197       1.99173601696129
H         1.45594114789409      -1.31687311263025       0.51600401417768
H        -0.05609572047630      -2.04362936274926      -0.02916335828804
H         2.01402402262045       1.87835348427363       0.66045411642846
H         2.75873218610586       0.41488214217817      -0.03614638767282
H         1.81119109030124      -2.81187998987956      -1.35548830130170
H         2.33715622668639      -1.20622378998935      -1.78088897011094
H         0.77183043916815      -1.84104804497400      -2.45206496897298
H         3.40884789909545       1.64392557054582      -2.06501355398937
H         2.75120284704664       3.15601964067145      -1.40224551238305
H         4.93986000582851       1.41694405280996      -0.08943045206131
H         4.35337142130905       2.97126003056001       0.55374819921092
H         5.25024920722933       2.93826899751439      -0.98595580770857
C         3.67629112368905      -1.79654733522869       1.00232299690553
O         3.04051745862205      -2.87424472694517       0.98395577931343
O         4.11686439415788      -1.06951631320675       0.07592658170647
C         3.81732014266652      -1.16976849111730       2.43940995125896
F         4.81127567974339      -0.24591178455193       2.56615720172797
F         3.98347419129307      -2.07789724182407       3.43753141026384
F         2.62554567086925      -0.48413832241005       2.73561930056086
