34
C10H22ClN optimized with ADF in AMS.
N        -0.96117857602327      -0.35889657319472       0.30030743732228
C        -2.13374098840213      -0.67621960124777      -0.61770907024976
C        -1.43138174835618       0.86574749288750       1.04984629943906
C         0.25586053204411      -0.03239623243027      -0.55468874918189
C        -2.63437942477457       0.68907189644448      -1.07725466483925
C        -2.20937963783285       1.69505880091036       0.02582388481600
C        -0.69417254959748      -1.49367577462124       1.26293610735007
C         1.54073618793668       0.18206987685013       0.21974949508217
C        -0.26056506286183      -2.78377889790893       0.60360034462218
C         2.65151722546561       0.61099096493707      -0.74404495130905
C         3.98751127815327       0.80618631128563      -0.03460384577790
H        -2.87563380403768      -1.19269206906777       0.01073211885722
H        -1.75985046086240      -1.33985839772574      -1.43876823046655
H        -2.08528719333740       0.50601793265849       1.85855852926873
H        -0.56554690567652       1.37544228248429       1.49201258343021
H         0.32900265882159      -0.86194060233835      -1.30204131740937
H        -0.01143003444149       0.87762936779333      -1.11247081801045
H        -2.18499516301166       0.95064200063074      -2.04693355902472
H        -3.72391872740536       0.66509490554148      -1.21919171693039
H        -3.07270033201490       2.17256016896308       0.51191374062670
H        -1.58523420626092       2.49966004883631      -0.38960983093319
H         0.05744238297068      -1.12269199306063       1.97701902696231
H        -1.64128571970164      -1.63008129708808       1.81033786120126
H         1.43351727116587       0.95283385179430       1.00703809399979
H         1.85430584700415      -0.75092647600832       0.71863363303689
H        -0.15403596045571      -3.54740949521820       1.38972209371928
H         0.69417414275586      -2.68620580544123       0.07000578355353
H        -0.98089786461488      -3.13157913570068      -0.15131711104031
H         2.74616363866992      -0.15172607757693      -1.53647001292595
H         2.35416253606346       1.54887382744378      -1.24708141647252
H         4.31707416432521      -0.12797099334121       0.44753442756484
H         3.91321433617131       1.58106831157183       0.74587286443430
H         4.77189196514467       1.11372970628586      -0.74213081984856
Cl       -0.33410256952349      -2.38567234724858      -2.75777767166699
