33
C9H17BF4N2 optimized with DFTB in AMS.
N         1.57249897989740      -0.35039439991652       1.03399774479411
N         0.15218610919466       0.91149197319667       0.02231641500990
C         2.47411412250164      -1.46579493886822       1.28999888597681
C        -0.80041460696923       1.38647199845162      -0.97325906883004
C         0.66164126360116      -0.31688067783720       0.06244077056828
C         3.71710020958879      -1.33736638516667       0.40098626696294
C        -2.22542955242857       1.37050734095635      -0.42015728962433
C         1.68601564359787       0.89987077786641       1.58503662021358
C         0.78582730366200       1.69284773081710       0.95088868845472
C         4.67163639428489      -2.50187208811556       0.64138693767168
C        -2.69675776403754      -0.03941959846559      -0.06824226808740
H         1.93571355108371      -2.39416657912760       1.07774314754867
H         2.74419535500210      -1.44704424149711       2.34999784200993
H        -0.70025450882319       0.74440551355299      -1.85125621919093
H        -0.50134879681537       2.39943096160730      -1.24975944547996
H         0.35858512657210      -1.14812305538032      -0.54745462002920
H         3.40523539766061      -1.31139093867173      -0.64581775543971
H         4.21276789506324      -0.38841302246037       0.62019721766280
H        -2.27698811848085       2.00900874284239       0.46723151411273
H        -2.88371757703447       1.79671959906730      -1.18205174256313
H         2.39326185910976       1.11724553029576       2.36551313103350
H         0.55993284097918       2.73788924410639       1.06734699439299
H         4.18278425707467      -3.45299991932387       0.42446783114676
H         5.01471801711993      -2.51506870827006       1.67734620086172
H         5.53897352977565      -2.40150331644692      -0.00994499991947
H        -2.06889340502364      -0.47036095770606       0.71307020703773
H        -2.65458881084394      -0.68644293989022      -0.94517932726633
H        -3.72448383353384      -0.00830332689946       0.29239395336063
B         2.51760758757190       1.05823675708434      -2.00233399916155
F         3.40648076676834       1.06114850905172      -3.04161250795850
F         1.53070321164423       2.04585601224300      -2.14208335556112
F         3.16417649421901       1.22849014288962      -0.76359929927696
F         1.83941901851780      -0.21548311028550      -1.94447612093082
