30
C8H20ClN optimized with ForceField in AMS.
N        -0.00991130927594       0.00655097668395      -0.01043380160941
C        -0.82972491216129      -0.23943099011739       1.22756261351028
C        -0.88552690413797       0.20097458426930      -1.21847199219051
C         0.87097409895335      -1.19047034068943      -0.24572744815266
C         0.80429688699043       1.25509699306638       0.19493628219325
C        -1.86229586138132      -1.38174589500115       1.13449395167451
C        -1.97292569084503       1.28755550171813      -1.09197499752930
C         1.90651040568760      -1.05094141223657      -1.38064934196360
C         1.89293721919995       1.17540252543831       1.28428613643122
H        -0.17176774350085      -0.49547838164037       2.08522889941990
H        -1.36799848977856       0.68350338247561       1.53717240647474
H        -0.27346939313240       0.48742471912634      -2.09999931240344
H        -1.38331263923984      -0.75165764086158      -1.50493237459942
H         1.41594208454667      -1.47045956416583       0.68296528292917
H         0.25690215832593      -2.07915062236038      -0.50440776833544
H         1.29128131564441       1.57185254466449      -0.75397882373930
H         0.14810792403174       2.10358556247580       0.48384080985457
H        -2.40877299494776      -1.44536827340165       2.09906983033254
H        -2.61872266963187      -1.20355109395533       0.34533312053354
H        -1.37472448688107      -2.36373174128958       0.97248805588395
H        -2.55938812487038       1.31331016765056      -2.03449725535322
H        -2.68596999366120       1.07766997990196      -0.27095638303983
H        -1.53153774706670       2.29533136522695      -0.95745283030837
H         2.50055406867720      -1.98750505240897      -1.43529340662904
H         1.41890812377729      -0.91952191137280      -2.36711861778878
H         2.62052698307675      -0.22323563247583      -1.20233289337997
H         2.41911873282065       2.15195134897136       1.33183294870215
H         1.45918526164489       0.99039419930029       2.28709049959415
H         2.65676271002234       0.40569277266323       1.05970988709317
Cl        3.61882718181302      -1.10020835505580       3.67626556809515
