36
C8H20F6NP optimized with DFTB in AMS.
N         0.27157531962410      -0.25595866336795      -0.20983173903435
C        -0.31202218788053      -0.84573326842947       1.05259610424675
C        -0.80004559075437       0.31916972158947      -1.09403604378663
C         0.98291083028723      -1.34817897661240      -0.96873765466457
C         1.22277292497625       0.84950115098973       0.17947443620238
C        -1.39610620998555      -1.88981371768403       0.84125445792830
C        -1.72265073839351       1.32977015153143      -0.42745512284464
C         1.71992372745928      -0.89679602722889      -2.21897299876868
C         2.46958805753740       0.40492777229193       0.92902468409184
H         0.51530083377686      -1.30434533202664       1.59314946542515
H        -0.69794326548334      -0.01281342419933       1.64455727163756
H        -0.29482607612520       0.79728448588135      -1.93593707455648
H        -1.38506545801202      -0.52025952653438      -1.47624538305719
H         1.68229088971902      -1.81169029924267      -0.27494021929184
H         0.22764011522691      -2.08802102633626      -1.23815680624730
H         1.50297666694278       1.36857664485816      -0.74079050438899
H         0.65466277094427       1.54342382594041       0.80335558921947
H        -1.71862454578998      -2.21356222563318       1.83080509485677
H        -2.26168004107628      -1.49791203516895       0.30904237321134
H        -1.01115753470815      -2.76217101516166       0.31815643717531
H        -2.42671942952883       1.67711515386864      -1.18378850179113
H        -2.29209997249737       0.88769827204931       0.38730414581555
H        -1.17618993438784       2.19261951181697      -0.05131470471108
H         2.20473967720018      -1.77959617030861      -2.63584422069302
H         1.04884317608490      -0.48987609333288      -2.97447475910027
H         2.49304818372865      -0.16369044368313      -1.99700885597135
H         3.03958659309496       1.30313150014673       1.16730469859110
H         2.22618652658253      -0.10385954720154       1.85849722498739
H         3.09728862597275      -0.24987114384222       0.32991697625414
P         2.48336138118982      -3.51838178327531       1.96416991163368
F         3.21220403797935      -2.52070622775933       0.82563973556041
F         1.94496951410091      -2.13089657522897       2.74362160050033
F         1.08029224268263      -3.45638693668347       1.02534031690706
F         1.70098484772430      -4.43433487734493       3.05725842656184
F         2.97285965543727      -4.82621015020226       1.12984891133634
F         3.84039826265059      -3.50023170087568       2.85588907036482
