43
C13H24F3NO2 optimized with ForceField in AMS.
N        -0.83804730453173      -0.20494256363013       0.02731251113517
C        -1.17598149184535      -1.24250817197484      -0.99580553415008
C        -1.97258059344991      -0.23798991008332       1.00079086417515
C         0.43279738263410      -0.57033874862710       0.73527458713128
C        -2.59954173709326      -1.70672032491839      -0.75300995752964
C        -2.80628028791347      -1.47158780543712       0.71605464072072
C        -0.76184707130007       1.13919769437571      -0.63363304120301
C         1.69832284159227      -0.54555757032635      -0.15538462306791
C        -0.40264399269795       2.30487084554163       0.31816461034425
C         2.91060982599963      -1.08676748833063       0.61352781895801
C        -0.49007760314368       3.64512080186379      -0.40719022402459
C         4.17571461333741      -1.03369565736532      -0.23655905275680
H        -1.07579893430684      -0.87747594593853      -2.04357914618422
H        -0.52593870881927      -2.14372599578904      -0.91468308227960
H        -1.64160925357471      -0.24585645972837       2.06445928466196
H        -2.64963320397778       0.64020074326335       0.88878681627107
H         0.33164144654854      -1.59043460184299       1.17429427133931
H         0.60504824031181       0.10569345435318       1.60193272813324
H        -3.30694192528448      -1.07909616066524      -1.33933122380241
H        -2.73819650417142      -2.77773630648900      -1.01763161489517
H        -2.41361048624996      -2.33570766420757       1.29678179475329
H        -3.88012318274375      -1.31245803568105       0.95654687801565
H        -0.02150293248969       1.12435600745174      -1.46387125724085
H        -1.73986532019651       1.36999601898958      -1.11749005717995
H         1.54837920202776      -1.15878647432522      -1.06887531635960
H         1.92304940507144       0.49581290811559      -0.46743559377398
H        -1.08946062588147       2.33263607343206       1.18971889682995
H         0.63483212673225       2.19418297642748       0.69560246648071
H         3.07164545578536      -0.47956573033036       1.53126881605867
H         2.72553086795282      -2.14090082252508       0.91525769399946
H         0.22071832339034       3.66657840282876      -1.26101521121812
H        -1.52147601625708       3.81574890424261      -0.78320037620011
H        -0.22815437258652       4.46600658170621       0.29335618744800
H         5.03808934702116      -1.40240919016475       0.35826928502972
H         4.06374203449102      -1.67454167221608      -1.13710811134350
H         4.38163680232092       0.01094928616264      -0.55170267068349
C         8.54330972120549       2.51272866109384      -0.74046741766211
O         9.63824133106954       2.60222749981740      -1.27276540364301
O         7.88369784804051       3.52097040455273      -0.54436069783656
C         8.00334289196278       1.17537552729541      -0.33179125279085
F         7.74889390631596       1.17401626226640       1.02722048694436
F         8.91297667066800       0.17314862133837      -0.62134705984145
F         6.82855179203580       0.92731772147799      -1.01517301876295
