46
C12H28BF4N optimized with ForceField in AMS.
N        -0.00245113493683      -0.00203209580280       0.00088943991988
C        -0.84566581760730       0.64751064906855       1.06711855067547
C        -0.85619637938426      -0.64700843653627      -1.05981197825221
C         0.84654745059609      -1.06698929282974       0.64514039462372
C         0.84524845321160       1.05838117611886      -0.65125620600068
C        -1.91352992188288      -0.26028102026590       1.73189459233294
C        -1.92253084621651       0.26603443268789      -1.71939953227560
C         1.91177776755985      -1.72908210583961      -0.26718838352902
C         1.92247232772290       1.71707590554479       0.24766409868999
C        -2.70213924752238       0.51152395923662       2.78846870577652
C        -2.71753955090409      -0.50240831324864      -2.77354879247924
C         2.70406592282625      -2.78512728931722       0.50172191002006
C         2.72264202847258       2.74884768712587      -0.54573808550808
H        -1.35580046459239       1.55169920556585       0.66648449965314
H        -0.19980295693475       1.02017801920039       1.89167823036816
H        -1.36748214156911      -1.54929373895668      -0.65665524584679
H        -0.21816980480399      -1.02125763959715      -1.88943083265136
H         0.20508525235327      -1.89442553416600       1.01819091552714
H         1.35899436613161      -0.66635139108845       1.54812145939820
H         0.20475336323123       1.88936499490009      -1.01806947170965
H         1.34697811059385       0.65404974106239      -1.55852346514269
H        -2.63981386611952      -0.64336102474268       0.98704311699712
H        -1.43709520426723      -1.12209191311738       2.24094980204651
H        -2.64386570428104       0.65227785123465      -0.97145429678422
H        -1.44445784221640       1.12562240894503      -2.23072042263262
H         1.43248150067467      -2.23837350854851      -1.12720655222319
H         2.63555803384238      -0.98317591382442      -0.65281060711739
H         1.45233359058715       2.24374789171836       1.10281152166636
H         2.63929848703462       0.96861674214027       0.64065037011568
H        -3.45525659156609      -0.15936198538488       3.25378128491758
H        -2.02253229940354       0.88407188919090       3.58479025559343
H        -3.23136279557209       1.37189672547360       2.32602831552537
H        -3.46999118571468       0.17111228178168      -3.23591624716883
H        -2.04186326587035      -0.87669705050940      -3.57251769373674
H        -3.24734822796807      -1.36156218807567      -2.30961731009437
H         3.45544446520297      -3.24952041937073      -0.17160297207154
H         3.23528301135922      -2.32246831828416       1.36078513047564
H         2.02642533452649      -3.58223715500772       0.87633615971839
H         3.50424991930484       3.19653074542318       0.10271079914691
H         3.22143933837245       2.26994583318669      -1.41474503188955
H         2.05403619936108       3.55840882422152      -0.90963058252214
B         2.64658367939475       5.57373513511358       2.15911671872295
F         2.92719952880938       4.22070078209962       2.48620839447545
F         1.57954666430927       6.04330846168452       2.96946547069383
F         2.27692961526665       5.66771747513535       0.79144833736643
F         3.80247724248836       6.36531345595379       2.39088649988903
