34
C10H22ClN optimized with ForceField in AMS.
N        -0.56144139966943       0.30016110865473       0.16214274895325
C        -1.54665510354477       1.23278234723867      -0.47412463832790
C        -0.90336119630648      -1.11846895964895      -0.16539763229572
C         0.78178112680475       0.64606606967538      -0.41249151469343
C        -3.02091742108916       0.89886955633071      -0.17988666323538
C        -2.36117254201099      -1.49135402700511       0.15761633111012
C        -3.33322651158020      -0.54837230008777      -0.54213485310504
C        -0.54112915937084       0.51364859298700       1.63553597088568
C         1.98190411624988      -0.16337346255900       0.13708530432133
C         3.28776207609000       0.29796193161046      -0.52496351457975
C         4.48390396333555      -0.49602544918843      -0.00710290431045
H        -1.42992759484331       1.22051973294984      -1.58317832909436
H        -1.35693587981601       2.28178488314331      -0.14985006678543
H        -0.25580560149956      -1.82383538129383       0.39924229246823
H        -0.73201287216193      -1.31721695286436      -1.24832353558254
H         0.99754828451265       1.72694939925340      -0.24235737150940
H         0.76756371083915       0.50452561919161      -1.51774412776334
H        -3.66790453153575       1.56726804800749      -0.78872456592779
H        -3.27378428768309       1.09290225959122       0.88302803031063
H        -2.53558545723496      -1.47411975655579       1.25443337591606
H        -2.55431633794088      -2.52942816211264      -0.18977324493931
H        -4.37308310459054      -0.79112844610387      -0.23388422788328
H        -3.25847182028328      -0.68345497563110      -1.64408949290884
H        -1.54938290615228       0.44364246304407       2.08707859120397
H         0.07017389986527      -0.25642597956477       2.15220956666561
H        -0.13447695582327       1.51795173214194       1.88938324158862
H         1.84876116913300      -1.24449971031378      -0.07421328376905
H         2.08271093872767      -0.01573146022012       1.23218424349201
H         3.45465314544972       1.37655288442025      -0.31144240341416
H         3.21901536174390       0.16524963220358      -1.62712897138945
H         4.36069281163400      -1.57500563249411      -0.24103714361560
H         4.58713836912529      -0.36721481254238       1.09154004766769
H         5.41163339019732      -0.13019939144041      -0.49558445320963
Cl        0.92797106452855       2.11686130468277      -4.08187905084335
