40
C10H22F6NP optimized with DFTB in AMS.
N        -0.26733698314036       0.31735816686334      -0.39910387925708
C        -1.09908012723496       0.50186104251108      -1.64384974993995
C        -0.33550554684129       1.64648286030300       0.30005848473772
C         1.14537818710626      -0.00911568105135      -0.78718907225031
C        -2.07598616398134       1.64666585896947      -1.36929609003703
C        -1.73499229489761       2.17226013145538       0.02728114755084
C        -0.87070569160381      -0.72735721819480       0.49288913792574
C         2.10530072573129      -0.11125448508785       0.39424932546823
C        -0.76347535532009      -2.15293985638393      -0.03014572012697
C         3.54486959917716      -0.13654266532557      -0.13568411422593
C         4.55117092270585      -0.24337096900014       1.00715634663546
H        -1.60110275585038      -0.43578151693018      -1.88035099791402
H        -0.42194275944720       0.75685252890076      -2.45927623025952
H        -0.12323155905648       1.51724203993634       1.36105949675560
H         0.41494778885852       2.29407012802244      -0.15198487092004
H         1.12415439244418      -0.94119940096841      -1.35571115232209
H         1.47322838122798       0.79090872718492      -1.45181147421319
H        -1.92682133297596       2.43177893457732      -2.11228587554338
H        -3.11121116513702       1.30528518718154      -1.42436639132869
H        -2.44613476979136       1.80580686476731       0.77244025154433
H        -1.73358095597447       3.26241259511687       0.05093045404395
H        -0.36963577403339      -0.65611213551652       1.46119203903715
H        -1.92096402111313      -0.45694867617343       0.62558366851417
H         1.98758014710971       0.75426027971843       1.05069393447804
H         1.90748373112161      -1.01405716787009       0.98073468534476
H        -1.35515000185017      -2.79196673555797       0.62509674601547
H         0.26498872109409      -2.50870992965087      -0.01312296165544
H        -1.15329408743909      -2.24811490789920      -1.04197586818280
H         3.66781081018338      -0.98582016420919      -0.81570417805583
H         3.72883282086479       0.78133297935419      -0.70158789817328
H         4.39413408850297      -1.16184640582011       1.57501286933961
H         4.45148517189851       0.60601606354708       1.68388140939314
H         5.56450103818867      -0.25080260676993       0.60655748365664
P         1.53703226855416       3.56187321352951      -2.56381532251084
F         0.06322111582764       3.68083032953973      -1.77279746031633
F         1.98469306570373       5.00155552028941      -1.95949480787726
F         2.14892915103984       2.79784471783523      -1.18850344298647
F         2.97032725874101       3.35568281107935      -3.30473585615383
F         1.04693176263807       2.04365945147069      -3.10758484731691
F         0.88416534146870       4.24495267405617      -3.88618126877359
