41
C11H21F6N2P optimized with ADF in AMS.
N        -1.92027330671096      -1.71498637724949      -0.61785166280886
N         0.13521120227529      -2.16194993557476      -0.09360036793522
C        -3.29991599899718      -1.22194072312919      -0.49315726562642
C         1.36640075020552      -2.25069788811469       0.70692027286365
C        -3.43067083153119       0.24490571936807      -0.89452345192662
C         2.26951299945773      -1.03522767298467       0.51645892302310
C        -0.98164545276692      -1.55464011661404       0.32228503736562
C        -1.38684177940928      -2.43828671537141      -1.66758468668455
C        -0.09173098315340      -2.71899357336737      -1.33685978598741
C        -2.66554793100863       1.20607077317098       0.01607879770758
C         1.64917168343362       0.27482353173086       1.00191208417174
C        -2.95451331909922       2.66694500930926      -0.31825880334676
C         2.62463627594272       1.44547149469807       0.91497374990796
H        -3.92452677090235      -1.87332589765510      -1.12192670200771
H        -3.58473174514452      -1.37565070253858       0.55960120498288
H         1.04097851205748      -2.35006074453413       1.75389097489625
H         1.86754305569527      -3.18310425274440       0.40948985854282
H        -4.50802657968832       0.48614406081550      -0.85931238163644
H        -3.11074202069638       0.37435984529403      -1.94470588471105
H         2.56423901424350      -0.95085454954527      -0.54572079560276
H         3.19325212205175      -1.23769959920766       1.08756087598841
H        -1.11348323593744      -1.06719457472254       1.28210417306461
H        -1.97655207914751      -2.71094072997043      -2.53361555918270
H         0.66881140712345      -3.28618507993758      -1.85848314543093
H        -2.92664847802085       0.99702957870041       1.06870338114570
H        -1.58110290205018       1.02506991923361      -0.07791799222756
H         0.75560174019886       0.50831866436177       0.39686952630899
H         1.29815182551408       0.14685704725829       2.03981182380770
H        -4.02511807621346       2.89314724357102      -0.19722354193641
H        -2.67576615544611       2.89986818134007      -1.35834945459822
H        -2.39161056569872       3.34166135959654       0.34332225715349
H         2.96596135148388       1.60558370199725      -0.11997312837475
H         3.51286902426504       1.26322830069120       1.53968390462226
H         2.15387894038558       2.37595128731675       1.26491971243301
P        -1.72730075415977      -2.12995110284982       3.73322246528770
F        -1.38377614795309      -3.16454391194172       2.45731380144014
F        -0.44633311264368      -1.15060876842839       3.20241953838994
F        -2.72657309002687      -1.25104778369376       2.68842813528231
F        -2.04151018048121      -1.05735990976833       4.92346448948490
F        -2.99067195765818      -3.07011001476084       4.15890631783764
F        -0.68732396168835      -2.96244548474949       4.68176488031596
