24
C6H11BF4N2 optimized with DFTB in AMS.
N        -0.66640672412524      -0.01483742350058       0.13810575275271
N         1.44156141221088       0.41497994859503       0.09808748553808
C        -2.05844731855658      -0.04228441700287      -0.30429913781454
C         0.35434665127495       0.28977307058704      -0.65610098551525
C        -0.22783294740640      -0.05751375602473       1.43615587649961
C         1.10431534768106       0.20840074383394       1.41028196986245
C        -2.75601249882220       1.24199479627010       0.13087941849191
C         2.73762428217868       0.83663657879852      -0.40760535035647
H        -2.04671843849742      -0.11022765690665      -1.39485596665957
H        -2.54141725794175      -0.92752727460864       0.11954011899131
H         0.31150192345845       0.39674063634676      -1.72664313750901
H        -0.88598136338367      -0.27624220720910       2.25856980202778
H         1.82746110628662       0.27175000242146       2.20451449822005
H        -2.77909015408906       1.32002430451462       1.21765578526036
H        -3.77641272827468       1.23700932662852      -0.24909223134670
H        -2.22463276249933       2.09996617075740      -0.27846133367574
H         3.35974820512453      -0.03817930120293      -0.60420781213984
H         2.57136742212921       1.39617344489710      -1.32909201891879
H         3.21823174933377       1.47132065948196       0.33507253392503
B        -0.16180789543655       2.61696479978693      -2.23734743536469
F        -1.13600137333262       1.65523302657156      -2.60140782149632
F         1.10568438998246       2.11687748595453      -2.63441119973508
F        -0.15098960822584       2.65358808355453      -0.81174867146042
F        -0.41956187616929       3.84338443935550      -2.76650643567687
