39
C9H20F2N2O4S2 optimized with ForceField in AMS.
N         0.26076888346974      -0.10757745260508      -0.20347226693292
C        -0.62333291873323       0.65306170688492      -1.14573677551543
C        -0.47541226927607      -1.32520827834608       0.27017371213973
C        -1.99294607846757       1.02897964396201      -0.55556428914282
C        -1.85909099431830      -1.02469270569536       0.88142735569598
C         0.66795790300429       0.72722396264478       0.98049490581415
C         1.45621873053311      -0.54968694663195      -1.00024654656553
C        -2.72867918664897      -0.21941917044862      -0.07957185517612
C         1.52312156273806       1.96708424644117       0.66057857543925
C         2.53901516986700      -1.31492033009034      -0.21591965121559
H        -0.82341000027333       0.04308907085643      -2.05792601396574
H        -0.12829471183659       1.57391256583857      -1.51769552316437
H         0.10852381354836      -1.86770649609420       1.04477211214957
H        -0.63097776369496      -2.03826313185670      -0.57245695206836
H        -2.60103291453326       1.52285798867857      -1.34406782975263
H        -1.88899123283005       1.76014381194833       0.27225589037293
H        -1.75783264742352      -0.48725763239769       1.84719121206091
H        -2.36991037438071      -1.98662770896682       1.10366234805769
H        -0.21481752888252       1.09015747023406       1.54095760685591
H         1.22552873554971       0.11038090959522       1.71774947524466
H         1.13682838283958      -1.21206111167110      -1.83776670922966
H         1.94333228304747       0.31952129259035      -1.49486267056074
H        -3.67077288027780       0.07626535430736       0.43030955816965
H        -2.99529032222810      -0.85061781393522      -0.95599470852392
H         1.73985855485129       2.50435088972605       1.60639303709911
H         2.49820693775274       1.69364253756580       0.21132872221790
H         0.98742501143456       2.68107747260827       0.00576087595924
H         3.35199141063024      -1.59926455700133      -0.91691488335257
H         2.99691800798879      -0.68976791379016       0.57605026118277
H         2.14369762935973      -2.25272533860686       0.22177286293019
N         2.86342682798883       1.81849649722571       3.99823967571801
S         3.94285376163184       3.03919299665919       4.14449825202502
S         2.97407524729010       0.46960714026579       4.91679965857510
F         5.42786213630819       2.53815987351304       3.55574333172956
F         2.49707976987430       0.82901390805115       6.48079108874426
O         3.46768271381676       4.22742945085251       3.35846407504189
O         4.09514835563996       3.41674009191944       5.59102795120052
O         4.39417876340620      -0.02132243213416       4.94079746618863
O         2.07832917923411      -0.59638962779703       4.35408581365377
