33
C9H15F3N2O3S optimized with ForceField in AMS.
N        -0.68661179360859      -0.90707186240251       0.41065033783637
N         1.50126810698142      -0.52397608938221       0.31034857492664
C        -2.09247090945847      -0.79560216904792       0.79632097289072
C        -2.89732863825179      -0.04186052161235      -0.27015884841748
C         0.35646679231523      -0.26321977124250       0.97090734829626
C        -0.18384458782925      -1.60160471917233      -0.63027597286814
C         2.82021544823412       0.03777442460123       0.58736972724099
C         1.17251715668695      -1.35782985932918      -0.69665050468213
C        -2.37750447537719       1.37992221597139      -0.48202837718497
C         3.13181582539269       1.16183183333182      -0.39327220377702
H        -2.18200779520217      -0.26349593754460       1.76905985783219
H        -2.51786241480077      -1.81352566286631       0.93001630841899
H        -2.85919646078499      -0.59569749079393      -1.23297285515502
H        -3.95947382500212       0.00987726863119       0.05224392778246
H         0.27670442498878       0.41373479690129       1.81277723723178
H        -0.76278442722691      -2.21958257581392      -1.30430199365978
H         2.85148773612651       0.44200934692410       1.62267072335287
H         3.59045638585364      -0.75936557573914       0.50460132364727
H         1.86321799321173      -1.74472556396529      -1.43456428075656
H        -1.34335037627895       1.36071708222687      -0.88683698719732
H        -2.38533157242364       1.94144686401331       0.47628026399949
H        -3.02666134128368       1.90854826341605      -1.21089272609976
H         3.12429830875653       0.77665185997637      -1.43472830383733
H         4.13492901821707       1.58333576116160      -0.17281321953953
H         2.37444811027770       1.96896216910333      -0.29684336308973
S         3.91679120239551      -4.75969220837713      -1.24172545822309
O         2.75204672841480      -4.15472550356128      -0.44463285197976
O         4.27640892560819      -6.01326015124936      -0.43030588776780
O         5.08045407328543      -3.80376192727009      -0.93892117351220
C         3.58714476700521      -5.04807494751855      -3.00540473034738
F         3.32406410482107      -3.84424577237249      -3.63056772270992
F         2.49521964102649      -5.88370507800734      -3.14160735585293
F         4.69096455302947      -5.63749089699011      -3.59158996239817
