48
C12H22F6N2O4S2 optimized with ForceField in AMS.
N        -0.87573743264526      -0.16453934155251       0.05203070273793
C        -2.00315623861200      -0.28054444369821      -0.92331522583984
C        -1.22086058807113       1.01649617653762       0.90256629669253
C         0.39974311333053       0.08778127005181      -0.69561675602743
C        -2.83228096613426       0.98576134902321      -0.83949094923791
C        -2.64323019296537       1.43483681731718       0.58183409762137
C        -0.80481696186980      -1.39046488767219       0.91164902623968
C         1.65992064511985       0.20365962989800       0.19546874133478
C        -0.44684165645879      -2.68320532392803       0.15845867071920
C         2.87281976988699       0.63480358163941      -0.63868851861760
C         4.13303179732889       0.72866730797107       0.21699801337807
H        -2.68472840995230      -1.12804046125499      -0.68038050728003
H        -1.66529076530297      -0.44140983333636      -1.97290890297512
H        -1.12601652783522       0.81679435114487       1.99473246905640
H        -0.57092627798543       1.89556796068953       0.68803813456749
H         0.57864172898760      -0.71568960920303      -1.44413919606588
H         0.30081032536671       1.02557543160871      -1.29091994968259
H        -2.42460217710946       1.75209251195307      -1.53580507795083
H        -3.90290962189050       0.79723776006179      -1.07295092448543
H        -3.35533496682371       0.89658630337393       1.24642174039422
H        -2.78694851141636       2.53216271940397       0.68881238521062
H        -0.06681822654580      -1.25552522259177       1.73220812491129
H        -1.78329236603264      -1.55415261615361       1.42003201389875
H         1.50071505984236       0.94392142904776       1.00728129381407
H         1.88889926316713      -0.77887291673817       0.65847539264059
H        -0.50402170431619      -3.53718413018517       0.86583496707241
H         0.58972029750974      -2.65084051154579      -0.23175932528655
H        -1.14987625578838      -2.87877576265729      -0.67653512232970
H         3.04652972990506      -0.10173612134058      -1.45340624385931
H         2.67741271799031       1.62832867786844      -1.09787477945846
H         4.36878955545001      -0.25880324718025       0.66804214829961
H         3.99614042390753       1.47879775534169       1.02485865090013
H         4.98952012387376       1.04216531341764      -0.41660863048174
N        -3.55915976911389      -6.72086497458204       2.97420706972509
S        -2.85532428532832      -7.36398999658214       1.64006392796976
S        -5.09056625647803      -7.08099100035987       3.43785891443498
C        -3.15822861301645      -6.29530433220169       0.24832734294381
C        -5.03280784614139      -8.32133933447597       4.71357047993600
O        -1.37219795701094      -7.46212597454940       1.86146998886499
O        -3.41116431421161      -8.73138115792410       1.35392544790663
O        -5.89590114918135      -7.59153063108303       2.27537001040177
O        -5.74167755958947      -5.84659141766598       3.99503300126991
F        -2.51658163623996      -6.79242293766227      -0.86999503591418
F        -2.67821408260742      -5.03108251221896       0.52728986835891
F        -4.51569655569227      -6.22335045947305       0.00409374144185
F        -6.31709130935598      -8.64981998273026       5.10380304022220
F        -4.33535245643466      -7.83126415631079       5.80115956924653
F        -4.39700327320917      -9.44939445629220       4.23237162688102
