44
C12H24F3NO3S optimized with ForceField in AMS.
N        -0.22610892315821       0.30724441300216      -0.16055792863080
C        -0.92021059835679       1.28649012717899       0.73929386744838
C        -1.12460504306896       0.00395955375072      -1.32118629169987
C         0.12243112554917      -0.93369328189596       0.61720328310566
C         1.00073623501312       0.96564993868647      -0.72980783312673
C        -2.32774020989880       0.84257047303067       1.18738062573381
C        -2.51715412239533      -0.50911109344153      -0.92048651794130
C        -3.21188640320638       0.49591902173111      -0.00742388245895
C         0.91714815360696      -2.01147529463841      -0.16087246298073
C         2.12448680658902       1.28795928764359       0.28596863595059
C         1.23483190390604      -3.20486691237230       0.73679194777734
C         3.27936356905687       2.01748146064592      -0.39630313284855
H        -0.33087894579849       1.46613587036574       1.66383650471662
H        -1.02902869383589       2.27296815194894       0.23180321890668
H        -1.28290399810610       0.92316107797680      -1.93314245528815
H        -0.66026822122489      -0.72725041555953      -2.01228273703359
H         0.69701357452664      -0.66383525326570       1.53029403475442
H        -0.78937444606065      -1.42607456993273       1.00731293664634
H         1.43643107441636       0.34076238548308      -1.54129125227523
H         0.71865276440930       1.92124890625225      -1.23046399878293
H        -2.26908466166067      -0.02017926778749       1.88297803876785
H        -2.80253882111535       1.67427170166255       1.75191915691022
H        -3.12947928942234      -0.64089114717492      -1.83884708325852
H        -2.45620481403898      -1.50361907635983      -0.43257512439684
H        -4.17232887345514       0.06846864768548       0.35262576550119
H        -3.44070896768549       1.42161776526349      -0.58028067128955
H         0.32988896419302      -2.39242085850564      -1.02015090255267
H         1.87957405635619      -1.60926544896688      -0.53553290495088
H         1.75069100137223       1.93897564964530       1.10111523446630
H         2.53414744368480       0.35842360657119       0.73093705992620
H         1.79941108989125      -3.96614477279901       0.15791050731504
H         0.29654850058117      -3.66864001649889       1.10935230974188
H         1.85488075794601      -2.88468854386341       1.60099308984873
H         4.08177304511525       2.21944850092709       0.34440188436385
H         2.93140226986951       2.98639291909116      -0.81370288607697
H         3.70062080157361       1.39533846973463      -1.21453423033267
S         0.49758020200298      -2.72771612170352      -5.85939774428293
O         1.88368681777843      -2.34863874752753      -5.31795727869409
O         0.12752282690885      -3.96952631322382      -5.03532416556929
O         0.81095315468233      -3.30905944816124      -7.24575237307218
C        -0.73147015569383      -1.39337414871223      -5.84332473866701
F        -0.28134430668988      -0.34271573435873      -6.61916895181261
F        -0.92180265903397      -0.95831912819569      -4.54747236274946
F        -1.92774777452297      -1.86237417173234      -6.35065005150860
