37
C11H23NO2 optimized with DFTB in AMS.
C         3.60662394989077       1.44288363552510       0.26681950701724
C         2.24739444760545       1.93045956642571      -0.22037800898583
H         1.74499968640777      -0.77994050329483      -0.68852073993229
H         1.53728584516597      -0.99551817298225       1.08335830026861
H         4.02322740367537      -0.64822208981723      -0.21356914531524
H         3.72541686839452      -0.33654286594762       1.51064167696277
H         3.88551842864334       1.94182407465939       1.19712600031400
H         4.37388027697401       1.65905519812285      -0.47845270179052
H         2.00402448760612       2.94688642748879       0.09174601746321
H         2.17260314133824       1.85795829453228      -1.30858553647503
H         0.39294066406867       0.56024189263545       2.24477169518450
C         0.99619394854576       1.34437749597887       1.78952220251644
H         1.94503231174095       1.38302051252145       2.31897000516617
H         0.48995125532269       2.30786266282674       1.82173750177275
C        -0.00855223717718       1.03450746811041      -0.43539949057402
H        -0.26063522752013       2.09617945021661      -0.52114973228925
H         0.23331817341776       0.65671907370686      -1.43311449203646
H        -1.44972463267124       0.63855193689649       1.13565187022869
H        -2.42541886888328      -2.94624899250051       0.30924075481355
C        -1.12965311394927      -1.23656914663206       0.10823081281119
H        -0.70783973861288      -1.57137216398933      -0.84571012847222
H        -0.47771144291017      -1.57404662247194       0.91706822566720
C        -2.51062220884924      -1.85983410193317       0.30348825120011
H        -3.18846030827806      -1.56714270606384      -0.50050190023007
N         1.25475376866101       0.97681943399404       0.37125043844554
C         1.94441782256355      -0.35289691959962       0.29690340497851
C         3.43082418158449      -0.06536145757062       0.49420853301296
H        -2.93846667715524      -1.54096204774223       1.25443515444191
C        -1.22439985496761       0.29297877338845       0.12428712786371
H        -2.06015694365362       0.60355345452301      -0.51391143741319
C         1.77930663536963      -2.26052416814199       4.74061750667002
C         1.64956313724757      -1.33195440481587       3.51230608057573
O         2.57084099271921      -0.50980428432680       3.33082411882879
O         0.63352058178464      -1.48088147105112       2.79248417032632
H         1.98932578461702      -1.66114317198926       5.62512419942651
H         0.86509145794193      -2.83303015094915       4.88436869241140
H         2.61479343544153      -2.94028702843311       4.57623866704630
