30
C8H15BF4N2 optimized with DFTB in AMS.
H         1.00176110102825      -1.38938968856572      -4.20532393275400
H        -0.20420635332140      -2.03054876832818      -3.05243079690678
H         1.53626381001963      -2.34405120730219      -2.78901732577533
C         0.80072891294138      -1.62756685590548      -3.16207857858734
H         2.48723588603905       2.09737638841933      -1.03998562898063
H         2.67201650537797       0.43622193171870      -3.24859572097069
H        -0.61208219794663      -0.75608555558920      -0.90243693562585
N         0.92214745697138      -0.42358669864903      -2.35807606390995
C         0.24608132999079      -0.20074197567330      -1.23304940097456
N         0.78630255233422       0.85710438516489      -0.63278902145937
C         1.86889526452383       1.27853299544794      -1.36196769517831
C         1.95870623028194       0.46831841940062      -2.44473013754391
C         0.44393633747109       1.37739035067980       0.68959531301045
H         1.36096060386233       1.80945577280772       1.09926290103729
H        -0.29981930552676       2.17392810917605       0.56895111799803
C        -0.07222332997524       0.27616865754259       1.61506442969547
H         0.63227885169979      -0.55921034693602       1.60281775176158
H        -1.04207509948689      -0.08544494038918       1.26006214586665
C        -0.21603046637022       0.81101962124495       3.04288583439229
H         0.75476081681476       1.17771956031634       3.39214279083080
H        -0.91682898067806       1.65382496477219       3.05351314197800
C        -0.71423354874572      -0.28202040276598       3.98622506764649
H        -0.01869702112408      -1.12145057994074       3.99482647102880
H        -1.69289740232110      -0.64476787373268       3.66888837246617
H        -0.80009626928213       0.11055147656375       4.99953469664977
B         2.53284831256509      -1.83157276845528       0.01174530475532
F         3.10525857556544      -2.81565750007916       0.76838741338238
F         1.10898287210753      -2.04458047127955      -0.08035413490030
F         3.02919744358485      -1.82391794587016      -1.30472430723807
F         2.71420129899888      -0.55882038879306       0.58420426870562
