43
C11H17F6N3O4S2 optimized with ADF in AMS.
N         1.42622612541684      -0.40058286165818       1.83703242261394
N         1.43343025725040       0.67256949026247      -0.05215658443449
C         1.58002696922572      -1.46078464059436       2.84493424449273
C         1.48456202159875       0.96917980880216      -1.49141711833700
C         1.61096015911751      -0.52780320282787       0.51535708090025
C         3.02589914476491      -1.64020403146974       3.30057263015597
C         0.08291808322701       1.12014081668784      -2.07534134970990
C         1.14416372526843       0.92041071328180       2.11709178984570
C         1.14500468714643       1.59193539045867       0.93134308606169
C         3.91230833960279      -2.28687697494885       2.24521645249917
C        -0.76927078188926      -0.13684985783392      -1.93255976184386
H         1.18479362127469      -2.38991499266424       2.40432100734974
H         0.92103799148523      -1.18087787150550       3.68029753286317
H         2.03040901587834       0.14599554979794      -1.96842058233180
H         2.09459179593310       1.87804986018656      -1.59793675441256
H         1.88068572668548      -1.43695275419058      -0.00383328774107
H         3.43495654758105      -0.65637736904516       3.58754587069312
H         2.99059251876356      -2.26042521701673       4.21328541474892
H        -0.42314739134092       1.98051419112988      -1.60294185798948
H         0.21032600989683       1.37879636672624      -3.13999075703891
H         0.99843358732133       1.26861851046429       3.13150059110175
H         1.02305555060142       2.64349613381828       0.70830937741707
H         4.03849297641234      -1.64051073623844       1.36770604802928
H         3.50986503115455      -3.26438669520650       1.93111325706332
H         4.92648590179516      -2.44983708167338       2.63730069970458
H        -0.95384664676434      -0.37883747378757      -0.87368626747417
H        -0.27693849396597      -1.00387508353300      -2.40247912112618
H        -1.74882742989777      -0.00464229523310      -2.41530889019649
N         4.90858582080373       0.97198129158998      -1.10854882206660
S         4.60453196736055       1.71203957676424       0.27162083141616
S         5.76092950531333      -0.39570267689136      -1.26425106799074
C         6.21061512190542       2.60790995147734       0.68588409905016
C         4.54854591306427      -1.34079313433019      -2.37486946630918
O         3.66136910735277       2.79607257434494      -0.01787544920875
O         4.34749209841630       0.86311070943189       1.43721513319169
O         5.87741777929501      -1.23061647765573      -0.07384721616143
O         6.90746548407369      -0.19412173705477      -2.13474222839838
F         6.11524455300798       3.16235747280072       1.92082010355928
F         6.45539518799820       3.58820192964480      -0.20891023415337
F         7.24699703944003       1.74001889522737       0.68059164799083
F         5.15680890480679      -2.42676239454168      -2.89417045522713
F         4.07060227672797      -0.58542020344813      -3.39209738644492
F         3.45881785739035      -1.78976765244841      -1.65790902465209
