44
C12H24F3NO3S optimized with ADF in AMS.
N        -1.21634362342202      -0.34123090742916      -0.67361693214339
C        -1.85062054221772       0.07287090087202      -1.99589543262859
C        -1.34127267826246      -1.84971317584729      -0.52812521905032
C         0.24802298029434       0.03448361152860      -0.75513702098593
C        -1.90316952632228       0.33738752073673       0.51034525233029
C        -3.28073289256046      -0.40537471115500      -2.15346212327525
C        -2.77205228904060      -2.34212318355249      -0.65540256352160
C        -3.38286760672957      -1.92006574681831      -1.98951284537506
C         1.07471616293667      -0.22902996442631       0.49150198769458
C        -1.71057844522446       1.83477824282491       0.57705666942250
C         2.52587139438607       0.20672834696273       0.26498343931289
C         3.40111701934238      -0.05371215577213       1.48713803529669
H        -1.19797713143676      -0.36160049517191      -2.77181619165677
H        -1.77725532561145       1.16791701915789      -2.04934279145973
H        -0.91045815104775      -2.10982957312340       0.44796011015119
H        -0.70532235229721      -2.27574047566903      -1.32295343152232
H         0.27645025551833       1.10280430546091      -1.01689053080987
H         0.65518490710833      -0.52840357318377      -1.61029836761770
H        -2.97238227657164       0.09902591090864       0.43946207471419
H        -1.50821099748832      -0.16346527232377       1.40613271919565
H        -3.61246843386105      -0.09421118191587      -3.15845096989933
H        -3.93565345863226       0.11021405938714      -1.43368631817300
H        -3.39804117494021      -1.96026556729713       0.16642762255367
H        -2.74260258068604      -3.44085756773886      -0.56245743069267
H        -4.43957227679280      -2.22459726979102      -2.02478157551418
H        -2.85585780659599      -2.42789361002800      -2.82029892270635
H         1.06217377047823      -1.30063820901528       0.75112216788797
H         0.66580885555115       0.32240563826047       1.35347503937313
H        -2.28165537492267       2.18086993924674       1.44988070617955
H        -0.66117114957762       2.13895762620353       0.70430212772361
H        -2.15554057372897       2.34611323958689      -0.28696252536582
H         2.54958966414499       1.28258761200754       0.01330266412417
H         2.93880865947987      -0.32862741701540      -0.60902471416948
H         3.41386225529162      -1.12551090624882       1.74207464021602
H         3.02839341532651       0.49708208803754       2.36525141142977
H         4.43793963019189       0.26257359493560       1.30358781405524
S        -5.58583488851024       0.74859593412264       0.79075351342672
O        -7.02935439727976       0.91993800296415       0.64892676299266
O        -4.72856521749979       1.70667818833346       0.05548739337640
O        -5.07815554469560      -0.64526364912356       0.73643354493443
C        -5.26225696251962       1.20231189459457       2.58629076271753
F        -6.02952679491045       0.46953513556969       3.43083458317167
F        -5.50477175708141       2.51746208490034       2.82648115283834
F        -3.94646787868320       0.96796632884382       2.92946662044851
