33
C9H15F3N2O3S optimized with DFTB in AMS.
N         0.83030750113808      -0.99566908736351      -1.04495891523454
N         2.60509877416203       0.19564597823048      -0.81476029536034
C        -0.31439414744785      -1.84544694861944      -0.73342044903306
C        -1.58040227286524      -1.00712584902858      -0.54765142985918
C         1.66705988556464      -0.47647679502622      -0.15040921450103
C         1.23918216254251      -0.64728809782612      -2.30295002230861
C         3.75331443198136       0.84917519599920      -0.19352823364191
C         2.36097028702558       0.10562268616638      -2.15721668981897
C        -1.49006965783577      -0.08387206126885       0.66522054004825
C         3.30173341219954       2.06663988669670       0.60305439575824
H        -0.07169622541407      -2.39907363311009       0.17786406725080
H        -0.43677272988359      -2.54770653485765      -1.56105321990319
H        -1.76492599563607      -0.41840111204076      -1.45193718411530
H        -2.41600548105224      -1.70016525130626      -0.41779951712311
H         1.61725824280335      -0.61971682189091       0.91544701216732
H         0.71317481302109      -0.96800456563422      -3.18491220631995
H         4.23187384596788       0.11181888051535       0.45863429687232
H         4.44430804339247       1.13690462849952      -0.98903481105264
H         3.00354393513675       0.56632508422072      -2.88677312704678
H        -0.69659470976858       0.65257361759149       0.53023850113702
H        -1.28235862951006      -0.65951962838668       1.56736373179010
H        -2.43302849978094       0.44567045065070       0.79752611887029
H         2.79083019706348       2.78072371900713      -0.04289761244220
H         4.17415742219864       2.54744409607941       1.04270989658420
H         2.62558841360479       1.76817244954799       1.40326840413355
S         2.88369704350553      -3.02472351567073       1.47175491525341
O         1.45631149775061      -2.73936071898502       1.59436535733554
O         3.44552820183972      -3.84844464780713       2.50418350011680
O         3.66589557063649      -1.84861472833796       1.10173712855289
C         2.94889668984517      -4.04913758250942      -0.07808149413592
F         2.37537455151320      -3.35394054897623      -1.08045047257580
F         2.28011427416462      -5.18817840076287       0.04531149917360
F         4.19190393373695      -4.32615812629640      -0.44752944857183
