54
C14H26F6N2O4S2 optimized with DFTB in AMS.
N         0.46420936271815       0.93424883297490      -0.83661331597015
C        -0.68385601906477      -0.04992040873228      -0.84844773243908
C        -0.07091396086959       2.19023605739060      -0.19542220138364
C         1.59162925309196       0.40505083544803       0.01898506155723
C        -1.90299948251705       0.70308134346728      -0.32927642110073
C        -1.28908745843035       1.74858347300445       0.59663456402656
C         0.93354087191787       1.21895875336516      -2.24722550533239
C         2.12833567625256      -0.97080609615286      -0.37010116556788
C         1.70559855933091       2.51934402842844      -2.40948795677536
C         3.29215029825606      -1.32174089735451       0.56722470914078
C         4.01908266352701      -2.58124052222862       0.08720312765694
C         5.12918113108849      -3.01356070083467       1.05302944545183
C         6.29936026384678      -2.03112856536592       1.08919601612395
H        -0.44071285439149      -0.87203204687183      -0.17529526085257
H        -0.81650992904894      -0.44677966117817      -1.85445176014379
H        -0.37805494363825       2.87438969144838      -0.98743511041201
H         0.71184190220453       2.65473111684924       0.40210137747996
H         1.21629594972979       0.38547275897866       1.04570063792617
H         2.39778959850483       1.13437981176756      -0.04951686993348
H        -2.58644993115684       0.02992997404579       0.18903453780104
H        -2.43808550062089       1.18875494143020      -1.14935599513472
H        -1.96003294041802       2.58653221885840       0.78662670044602
H        -0.99972481102651       1.30013857360376       1.55014717355427
H         1.55754287005616       0.37547276487300      -2.54472762801500
H         0.04032910080918       1.23770772478101      -2.87733473989231
H         1.35425029309011      -1.74028442012809      -0.29506947255651
H         2.49608329782162      -0.95775297807313      -1.39794419719538
H         2.23864953461267       2.46842511423441      -3.35814204029506
H         1.04343604888439       3.38376213108804      -2.42997550420775
H         2.44509555796218       2.65457184158049      -1.62685593706566
H         2.91006941303230      -1.46915226648409       1.58356199788748
H         3.99264494089320      -0.48444619854658       0.58766261526637
H         4.45077630713245      -2.38977061297878      -0.90054190248950
H         3.29692018548118      -3.39946911416622      -0.01300688792684
H         4.71234885470711      -3.12904511141874       2.06021576168522
H         5.49609794364960      -3.99426036731374       0.73192912781026
H         5.98940110502701      -1.06666922501992       1.49195225211407
H         7.09443046598164      -2.42870646716756       1.72074454133185
H         6.69520718926387      -1.87275690605969       0.08621644655647
N         6.09123290490288       2.00815945765156      -0.67510993674818
S         5.30320592934825       3.37399608648325      -0.39932980972955
S         5.42784762164794       0.99474878678664      -1.71828227386735
C         4.15839474347306       2.99640250940924       1.05995835415730
C         5.71332730013884       1.68425066398663      -3.44971117146998
O         6.22708538404354       4.32509047328639       0.14590038367835
O         4.39596179503494       3.80171134806095      -1.44162056015033
O         3.97373383649139       0.87007089084752      -1.64184814681018
O         6.18308417630070      -0.22934331823951      -1.67556002722080
F         4.45002149804347       3.74270064697780       2.10660942069051
F         4.23166403983784       1.71624890719908       1.41978246105893
F         2.87875904451691       3.23446502086501       0.72545749261813
F         6.19035026572590       0.72631417876343      -4.22828000739087
F         6.57112979631063       2.68570724099037      -3.42458268157383
F         4.56488683259286       2.10769989908921      -3.96288215826876
