29
C7H16BF4N optimized with ForceField in AMS.
N         0.83168999096199      -0.00374184902557      -0.03311339954038
C         0.07605697002053       1.22617051653207      -0.41039811217391
C         0.07333926234763      -1.23152922675958      -0.41056728051226
C        -1.35702386389910       1.25817834578120       0.14920612484884
C        -1.35980803378466      -1.25988316708531       0.14926644741325
C        -2.12910877310291      -0.00000021413409      -0.24492212677217
C         1.15895707570202      -0.00402870983610       1.41659779265757
C         2.11463635231083      -0.00460845205086      -0.77831681181644
H         0.00265837044968       1.30789761573122      -1.52004464930141
H         0.61133098939471       2.13866056381338      -0.05975281039634
H         0.60632921047897      -2.14515768559757      -0.05947212378520
H         0.00028146513564      -1.31275125819219      -1.52022817969040
H        -1.88471626489553       2.14580937678126      -0.26250983812198
H        -1.34559994525474       1.37066866682423       1.25373542116892
H        -1.34854237546492      -1.37190610859545       1.25384967485057
H        -1.88955677160941      -2.14639786827239      -0.26201171416192
H        -3.11737614815437       0.00115932968752       0.26358640288000
H        -2.30677085089025       0.00015336097838      -1.34318007656289
H         0.25321976400680      -0.00380694266010       2.05441466258711
H         1.75566954202387      -0.90274955754035       1.69106827767717
H         1.75520309092844       0.89490489884318       1.69158560474838
H         1.94577319334416       0.00613742567029      -1.87885732904954
H         2.72356113413330       0.88972601764970      -0.52097275579531
H         2.71888181356348      -0.90854224008647      -0.53908094388254
B         6.01389788962604       2.50806082192874      -1.67629508698973
F         6.91186901325459       1.54633792143731      -2.21071701753140
F         6.09327588786518       3.70499535576930      -2.43631244782986
F         6.35902919918774       2.77991675994194      -0.32557898029939
F         4.69012928432030       2.00100934556631      -1.73421162201873
