49
C13H16F18NP optimized with ADF in AMS.
N         0.23296131685326       1.46471016622694      -0.86699766159263
C        -0.67979435862614       1.56839394712574      -2.08501315178447
C         0.80964052298507       0.05991421224515      -0.79693818659449
C        -1.76596371946461       0.50850540449122      -2.10161727011037
C        -0.26371599756357      -1.01678316171697      -0.78418320043307
C        -1.17934977583898      -0.89970299573986      -2.00356128069353
C        -0.51370973672950       1.79963992728715       0.38288383721809
C         1.36549618550235       2.43710038546475      -1.02470471370152
H        -0.02535265852756       1.47498236629772      -2.96061933469742
H        -1.08678112545404       2.58829979278713      -2.08482761022690
H         1.44832367386024       0.02588818609843       0.09881122550670
H         1.44411904697148      -0.03777496968445      -1.69085220884121
H        -2.30111669744128       0.63808594032914      -3.05707743572872
H        -2.50827901206753       0.67982776831997      -1.30263676458860
H        -0.84843037293174      -0.97676099698715       0.15109630083223
H         0.25726894202712      -1.98840831855029      -0.77820987630517
H        -1.98480515452723      -1.64804292861933      -1.94619838856489
H        -0.59918404797608      -1.11347463096955      -2.91634682614991
H        -1.36318489482595       1.12114989236282       0.50240250880020
H         0.16794932709117       1.70253626499957       1.23814688390988
H        -0.87114474079467       2.83384766795774       0.29982906641267
H         1.90077985006091       2.21116002319431      -1.95423019291482
H         0.95196177766787       3.45056661918792      -1.09550640122348
H         2.02273464023649       2.34513331131300      -0.14972875554956
P         1.28433686364577       2.71045020838590      -5.57634039537610
F         1.96529875337474       2.36027726691911      -4.05331650661209
F         2.71014174724202       3.40605354812234      -6.04498859815157
F        -0.16894676142083       2.00079879053052      -5.08386496271336
C         1.92913469119805       0.91666536473556      -6.15043754883747
C         0.68713502144077       4.40822077486129      -4.70371064056812
C         0.54000780053434       3.15228798459035      -7.37159991277879
C         2.36079065805006      -0.11747032436780      -5.06139906449755
C         1.74975331999372       5.51321875986349      -4.44128156218464
C        -0.95562132451589       2.87031344168169      -7.71818883813418
F         3.03126712775773       1.00614066631373      -6.96811434544073
F         0.94147191104090       0.25595725177315      -6.85085270231506
F         0.18580464632924       4.11276243759988      -3.42975073148936
F        -0.34693224259260       5.03411649011449      -5.34927955666076
F         1.25820008572126       2.47862842642910      -8.33575509337408
F         0.74357277852260       4.49210779582377      -7.61326050139541
F         3.47317649626656       0.24642334641458      -4.38530702921329
F         2.61993100137130      -1.31330223294078      -5.65258701322762
F         1.36269170704992      -0.34075401570125      -4.14588503267265
F         1.16705626914704       6.54018001559861      -3.74742849895253
F         2.77322966294399       5.04681463695471      -3.68194550100578
F         2.24282178429733       6.02428593534950      -5.58441807500543
F        -1.22038057302449       1.54397509593585      -7.74030585080542
F        -1.22547751137246       3.36519211516088      -8.95952326181126
F        -1.81129789038811       3.45756388153025      -6.84987139975578
