46
C14H26F3NO2 optimized with ADF in AMS.
N        -1.30719569422115       0.54717302630252      -0.15182824827148
C        -2.30933076457660      -0.56591093963379      -0.34244344804524
C        -1.81707541029999       1.23290894806767       1.11070354907320
C         0.08792390379756       0.00965489190519       0.13029842085981
C        -2.56358301372023      -1.10930136193437       1.06109097682736
C        -2.27737288567163       0.08587789809679       2.00963673175589
C        -1.31539670873809       1.47830210424610      -1.33828479348418
C         0.73429975748010      -0.73390234660366      -1.02160861504835
C        -0.31853378895007       2.61536909747563      -1.23119499612482
C         2.08124162130416      -1.32367427095988      -0.57922351378297
C         3.11268722449288      -0.28518815855648      -0.13949335150795
C         4.47989974464839      -0.91320173079011       0.12976904049687
C         5.52602829050390       0.11396539149975       0.55293252661130
H        -1.92264528949090      -1.29323292926469      -1.06681473196489
H        -3.21166934841570      -0.09342390666879      -0.76090020051789
H        -2.64981084959598       1.87697600710798       0.78797079820397
H        -0.98529643002402       1.82493688624750       1.53677142587480
H         0.00282972421094      -0.61832842691621       1.02776234497612
H         0.66256613663768       0.88990879290052       0.45528719799337
H        -1.89614273370071      -1.95524821361931       1.28116809055414
H        -3.59564876906216      -1.48065659357949       1.13959274624231
H        -3.16928591641525       0.38380168789457       2.57810388028900
H        -1.47284126964600      -0.14334177865051       2.72562682315754
H        -1.13057977058438       0.85800373457115      -2.22916936344135
H        -2.34690427298306       1.85936322003317      -1.40327434337570
H         0.09383836270193      -1.55811676924171      -1.38217570134729
H         0.90907903729395      -0.05767048873005      -1.87768664753963
H        -0.52741866522473       3.32958164705894      -2.04108775686362
H        -0.38783665248977       3.14103266623090      -0.26830143477400
H         0.71761794402026       2.26918308313272      -1.34190171368062
H         2.49025209096280      -1.90810575693932      -1.42260153161517
H         1.91126671729794      -2.04000567795216       0.24572783278051
H         2.77681905263825       0.23558240536170       0.77291675133622
H         3.21564564759486       0.48804108812058      -0.92580620935008
H         4.37266097829863      -1.67821298240475       0.92080176215344
H         4.82112644240092      -1.44648105460422      -0.77740201778984
H         5.21696154668887       0.62926087308925       1.47420838147417
H         6.50010554920491      -0.36393504655426       0.73627081294294
H         5.66391661650241       0.87866917234589      -0.22886914215214
C         1.24058075619230       1.64038376166949       2.82860605823281
O         0.93325439692027       2.42013722432651       1.88299672661547
O         0.72495953987352       0.55819910801937       3.18935404842055
C         2.50932866224337       2.06555844938727       3.64536693259436
F         2.37242929065259       1.84681210462069       4.98558261073776
F         2.84529923988963       3.37747700352800       3.48989149206095
F         3.60254036855737       1.32805783476392       3.23440789061234
