51
C13H24F6N2O4S2 optimized with ADF in AMS.
N        -0.93822870402521       0.30241036246328      -0.56720641431546
C        -1.86467863387017       1.18803210346550      -1.38734499815366
C        -1.41726018858561      -1.13955925441215      -0.69329050193882
C         0.44120049415232       0.41996469888669      -1.19860530544471
C        -0.91943950047879       0.69840186295548       0.89342107165999
C        -3.32520647839975       1.05570147710497      -0.99439449205418
C        -2.87424746200218      -1.31590870130171      -0.29613583936706
C        -3.78558203972414      -0.39758331036901      -1.10821914937079
C         1.54278808624218      -0.37980276557772      -0.52935210277375
C        -0.36433300721846       2.07961005550670       1.18268088457697
C         2.85652320582883      -0.18076752117387      -1.29164572147974
C         3.98354745412528      -1.03276891932283      -0.71705806033445
H        -1.73343478736571       0.86311116364432      -2.43080564568851
H        -1.49120018312127       2.21658188104018      -1.28870905856681
H        -0.74689938567323      -1.74891207923248      -0.07322948446812
H        -1.26646167049262      -1.40051171305941      -1.75273094728105
H         0.67876326654599       1.49464197875208      -1.21394102981730
H         0.30276111058041       0.08407021996976      -2.23582832661858
H        -1.95312077793395       0.62023307975031       1.24964443318274
H        -0.33231915476738      -0.07608885736134       1.40744897333265
H        -3.89316368574920       1.68756624621041      -1.69691890193299
H        -3.51091936484570       1.45774549057067       0.01732772492227
H        -3.01693260396677      -1.15762783826711       0.78703687973025
H        -3.12315739990072      -2.37287748868758      -0.48785077870236
H        -4.83113953573937      -0.50056894791983      -0.77881489895164
H        -3.74300176623514      -0.68872197435718      -2.16973076166673
H         1.29732362884511      -1.45338718711795      -0.55324768156400
H         1.68508362502372      -0.07939749252207       0.52410950954928
H        -0.44388596043367       2.25656153271214       2.26583573765495
H         0.69559665913445       2.17319680795973       0.91020970983470
H        -0.93420376244816       2.87452491515641       0.68175044390867
H         3.13764744542541       0.88801749689990      -1.27136530007070
H         2.69197032044147      -0.45424994738059      -2.34541628626451
H         3.72478415060914      -2.10193100857394      -0.77437071904311
H         4.18107095104946      -0.78307932685308       0.33835556199182
H         4.91663528752030      -0.88476859038704      -1.28079082351904
N        -0.97005488092146      -1.01611025115025      -3.99815267617331
S         0.26094581286864      -2.00010834512435      -4.36799228080411
S        -2.15346044560100      -0.63452222069610      -5.03809384853075
C         1.52976234464061      -0.91223047662554      -5.26380265765997
C        -3.32174168890737      -2.13307929435876      -5.05530183265829
O         0.92324955370245      -2.27435555499292      -3.09010686326651
O        -0.03207287387085      -3.07753151339554      -5.29897046438360
O        -1.75663713051042      -0.45870976982319      -6.42557684179622
O        -2.94722153112469       0.38790056531528      -4.35180615869559
F         2.74805850813896      -1.50195455560002      -5.16915012020372
F         1.60979653967671       0.31404971630767      -4.67278716396552
F         1.22952731666021      -0.74568277908525      -6.56191325186628
F        -4.55160799653775      -1.71937320041434      -5.44830941842608
F        -3.43581906756520      -2.66726228243088      -3.80541166789065
F        -2.90101613909573      -3.09201858789745      -5.89604775793562
