25
C5H9F2N3O4S2 optimized with ADF in AMS.
N         0.86723531454595       1.03187556699863      -0.60224115332122
N        -1.25263949725221       0.74265637378942      -0.23917457997142
C        -0.24098021141111       0.43407838994858      -1.05823278490882
C         0.54769132242236       1.76419951323258       0.52036689191315
C        -0.78384355917205       1.58312038387690       0.74752083829377
C         2.19343461958861       0.94126374157082      -1.20626161467826
C        -2.64487317802288       0.33911009425280      -0.41354184509466
H        -0.32357107845326      -0.12954998613439      -1.97878142998440
H         1.28124362723571       2.37800696844763       1.02661211822570
H        -1.44203471565068       2.00382956072705       1.49694976286362
H         2.09435591708799       0.49039236252395      -2.19896859281713
H         2.58545265938644       1.95860996673307      -1.32316108339307
H         2.84236580182001       0.32979647739005      -0.56458378567906
H        -2.95430294080223      -0.27476207068440       0.44178963225946
H        -3.25854201710965       1.24254814967455      -0.51496407457137
H        -2.72737041830531      -0.22856718285144      -1.34563072341815
N        -1.17537482800737       3.15821735034297      -2.19983832155155
S        -2.34671754480056       2.64909164647656      -3.17622143650137
S         0.28754158626835       3.47454549499270      -2.79255300597657
F        -1.91893647117909       1.02719492717922      -3.43821555471293
F         0.07533505072247       4.81697448916399      -3.69940975469084
O        -3.55334373270404       2.52915302765116      -2.37529228896270
O        -2.38250243678359       3.20783284043859      -4.50848435774703
O         0.81250236272249       2.47575239896549      -3.71170299755132
O         1.11698412235365       3.90928571419355      -1.67844820492383
