32
C10H15F3N2O2 optimized with ADF in AMS.
N         0.10043999888188      -1.24266857445933       0.10013846738980
N         2.04199276302472      -0.47188664040867      -0.47543142065735
C        -1.11351562102110      -1.47022743342949       0.89429584421878
C        -2.24683433613119      -0.53797968158640       0.47205086513927
C         1.10439247462220      -0.44200890557375       0.48308629418067
C         0.39770290165613      -1.78679663556555      -1.13357313523361
C         3.30310565657782       0.28127786592071      -0.39190669565638
C         1.62290380010181      -1.30149481654726      -1.49566687937932
C        -1.92366536893261       0.93741105412913       0.69023274788494
C         3.08798353363528       1.74632001433099      -0.74226689200787
H        -0.80558447826379      -1.32025817949772       1.94280409006313
H        -1.38843175081022      -2.52733994196743       0.76353628082375
H        -2.50374577789869      -0.72209137080488      -0.58707792287310
H        -3.13260163792160      -0.82237060967911       1.06571029134465
H         1.23709719161705       0.01213172424419       1.46900663648380
H        -0.26890045602123      -2.48102911623329      -1.63007866658975
H         3.65352153486266       0.15392587712543       0.64594367525798
H         4.00913439025674      -0.20679486082296      -1.07886115629909
H         2.23569567384310      -1.49375455309515      -2.36786825649074
H        -1.07474395949316       1.25913327380879       0.06638721468998
H        -1.66495461856852       1.12864280637673       1.74382386948717
H        -2.78495490234134       1.56937937499418       0.42677196453261
H         2.66033964264761       1.85981412295535      -1.75028123798433
H         4.04843988775619       2.28077786248649      -0.70708336810192
H         2.41285861883944       2.21849620918526      -0.01330840599324
C         2.19392208249546      -1.11011340948960       3.26824672398251
O         2.91007269419941      -0.28768508965209       2.63745683594592
O         0.95283015114451      -1.29333642760700       3.23106895509643
C         2.99105108124316      -2.07941841135155       4.20042029273971
F         2.22464218481562      -2.63688658871201       5.17878780853407
F         4.04656568769089      -1.47031301327069       4.81434773178278
F         3.50641636439175      -3.11931245120334       3.45414649848876
