48
C12H22F6N2O4S2 optimized with ForceField in AMS.
N        -1.44306696065142       0.41084776725764      -0.09417191503587
C        -1.76741766625399      -0.85380058280685      -0.81793949272215
C        -2.53575767264018       0.59428207528632       0.90389889026463
C        -0.13454955640374       0.31246786254880       0.62438041760933
C        -2.99162198147308      -1.47596065133746      -0.16520280841406
C        -3.67753116903326      -0.32389315737901       0.51673628730940
C        -1.44755759201426       1.56319340151972      -1.03288177845600
C         1.11034419662675       0.28772308860638      -0.29453521981593
C         2.36515098802652      -0.09717406930811       0.50021661672674
C         3.61320452304440      -0.07364267973998      -0.38905975098965
C         4.85907248262078      -0.46601099152196       0.39851098793046
H        -0.93873077678263      -1.59551395212116      -0.79875449499669
H        -2.00398388694210      -0.67291894494516      -1.89267925544509
H        -2.89623143642171       1.64705626638254       0.97299677510983
H        -2.21486523831572       0.30738158680824       1.93313655476739
H        -0.12965805072374      -0.60594167724567       1.25706352591573
H        -0.01995937378907       1.17643739517031       1.31929482133264
H        -2.67234245507440      -2.22286568251255       0.59586914578434
H        -3.65771084261073      -1.96546156470485      -0.90855174782115
H        -4.35265573391786       0.19249176537425      -0.20076590556723
H        -4.25821070286293      -0.66044363130599       1.40342158182898
H        -0.76932180774694       1.38599956768459      -1.89600477642304
H        -2.46567974070625       1.73298926258771      -1.45051140824815
H        -1.12573535480779       2.49603470047597      -0.51805362423563
H         0.97460305936536      -0.43362482783665      -1.12701585480640
H         1.26665460369595       1.29830780764483      -0.73032537536526
H         2.23494185867357      -1.11846769474197       0.92182739176116
H         2.50081042664322       0.61742185971423       1.34200207900576
H         3.75984559362206       0.94759717070998      -0.79888708036361
H         3.48458213252813      -0.78068856423254      -1.23750432572179
H         5.02289853210571       0.24251300510193       1.23829909815342
H         5.74533243947930      -0.43520133848234      -0.26971254772484
H         4.75220148646861      -1.49557955261688       0.80164739450395
N         6.51122326960917       5.12576876078622      -2.42996336936875
S         7.05281127711018       5.88197311424952      -1.08040061988063
S         5.70826698273006       3.69709572349438      -2.38637031535612
C         8.74405054292778       5.40945832649394      -0.78401323579287
C         3.95785604893398       4.01101338219912      -2.48035249087363
O         6.99514012301711       7.36811633937872      -1.29103749466011
O         6.21170758437231       5.51085638599189       0.10947255427727
O         6.01893247005569       2.94816153658644      -1.11991980365327
O         6.11485346154982       2.86836287799652      -3.57120729529703
F         9.21696041499187       6.06341234645037       0.33773957432857
F         9.51796576561378       5.75522569948929      -1.87553009484679
F         8.81922731571408       4.04438526122700      -0.58410138398296
F         3.27157426756167       2.81261169747014      -2.50576432717539
F         3.67753648891984       4.72008076118805      -3.63266020656778
F         3.55686202836411       4.74597979886408      -1.38122113760175
