37
C9H20F6NP optimized with ForceField in AMS.
N         0.26628637758515      -0.11184853611492      -0.19003790809614
C        -0.60271557625792       0.69115192930626      -1.11063503866758
C        -0.48444956167329      -1.33889501358959       0.23479734453022
C        -1.96934359206040       1.06393846370156      -0.51314143868568
C        -1.86879018396528      -1.04784150658316       0.84835765908248
C         0.67140193849175       0.67840961724087       1.02584997291315
C         1.46340451368271      -0.53939527365536      -0.99309538289256
C        -2.72414449731682      -0.18954207247666      -0.08042934051186
C         1.53625855496244       1.92287873690147       0.75288308560587
C         2.54710360557157      -1.31376965764817      -0.21958663391795
H        -0.80447631746184       0.11690360327871      -2.04470166586345
H        -0.09467137413475       1.61957837409676      -1.44474080404106
H         0.09011183399889      -1.91581521792778       0.99157657073604
H        -0.64261004201260      -2.02003838096135      -0.63311069611345
H        -2.56671312657053       1.59305595976714      -1.28637682818673
H        -1.85808007020958       1.76642696790406       0.33854031211569
H        -1.76657706911466      -0.55655033857321       1.83828961406419
H        -2.39198488707491      -2.01286994012075       1.02373841839566
H        -0.21143464120848       1.02812876859363       1.59541858829581
H         1.21919646287941       0.03362248896652       1.74697854233221
H         1.14681403787038      -1.18815666992922      -1.84221539776700
H         1.95038664061114       0.33708845832076      -1.47422982936093
H        -3.65848630957794       0.10496888278699       0.44422871973492
H        -3.00565175616661      -0.78197319291171      -0.97840900245740
H         1.80130699809968       2.39390453578064       1.72247224736505
H         2.48774279414048       1.66597703446919       0.24796393908402
H         0.98479647218897       2.68096592349582       0.16255077873795
H         3.37112374976204      -1.56396354618994      -0.91922318077470
H         2.99206079244565      -0.70742584572637       0.59345343218631
H         2.15551149182084      -2.26699953152331       0.18759809351680
P         3.53892449263406      -3.90191066852312      -3.99632577359157
F         5.17808666860602      -3.79947588526025      -3.49274269113559
F         3.00812282200485      -3.76656765049389      -2.36940118332722
F         3.55292129650536      -2.19499681711989      -4.19031241458150
F         1.89811465221416      -3.91905222577246      -4.50379230249153
F         4.02724655222725      -4.16120341816397      -5.62272282111506
F         3.55104236700282      -5.60505337014530      -3.77468805661742
