34
C10H22ClN optimized with ForceField in AMS.
N        -1.44746028802703       0.42515889342035      -0.10212597238610
C        -1.77448297327156      -0.83748612483652      -0.82848285846699
C        -2.53566028944976       0.60312050216227       0.90176793418446
C        -0.13546261571290       0.32458228130906       0.60851125280929
C        -2.99323339573370      -1.46323429744051      -0.17014159697491
C        -3.67907496214413      -0.31196480852045       0.51276184353561
C        -1.45664770496648       1.58125508281811      -1.03544278456229
C         1.10408167679916       0.29889168641696      -0.31742762554196
C         2.35989676603543      -0.08906898652803       0.47348250739959
C         3.60904026735834      -0.07013539036926      -0.41426595353959
C         4.84986419231510      -0.46665336568718       0.38113215360556
H        -0.94543782062889      -1.57879055599790      -0.81478327436840
H        -2.01888218203418      -0.65186739143990      -1.90053182822441
H        -2.89536457737867       1.65551670070883       0.97801406814781
H        -2.21002296879819       0.30770424011432       1.92719901694892
H        -0.12782185873826      -0.59486526049746       1.23781978417543
H        -0.01649691967531       1.18596265538688       1.30576031973400
H        -2.66792562566531      -2.20742732670655       0.59101151338215
H        -3.65961515978891      -1.95682051461535      -0.91040419179912
H        -4.35257572993893       0.20642997383949      -0.20508084999709
H        -4.26099232641620      -0.64852695153737       1.39845082396645
H        -0.78354015473673       1.40714028433476      -1.90306603273901
H        -2.47708021778549       1.75426942322074      -1.44568059025643
H        -1.13060945274137       2.51131373551978      -0.51810825887711
H         0.96393142587333      -0.42208495536948      -1.14950507855706
H         1.26017042390097       1.30918241085514      -0.75351764318844
H         2.22652502493278      -1.11020838054349       0.89419847661702
H         2.49791512110040       0.62487525639259       1.31530603014407
H         3.75920795750915       0.94987720017034      -0.83037394125597
H         3.48100086287190      -0.78089913776017      -1.25956134259179
H         5.01091744012939       0.24084223570587       1.22243976605615
H         5.74137839019584      -0.44113711782180      -0.28005547201471
H         4.73636050429342      -1.49538428589599       0.78501934458711
Cl       -0.81820932698317      -2.75379202470807       3.19887370704774
