36
C8H14F6N2O4S2 optimized with ADF in AMS.
N         1.34311302913032      -0.11809442435213       0.06901333574023
C        -0.03396328262744       0.50221491414423       0.16436521860763
C         1.02511033162343      -1.58716368097026      -0.16115447542835
C        -0.86757434306765      -0.20574869739070      -0.90445178817847
C        -0.16726612567266      -1.57647859858299      -1.11774893301333
C         2.13515212123437       0.11735867472688       1.31726905647657
C         2.09733154201962       0.43039161868135      -1.10779412925144
H         0.05095254741636       1.59142788287353       0.04891157517430
H        -0.39854178179227       0.27481949309079       1.17716685894700
H         0.76933005007134      -2.00157399148301       0.82389834323764
H         1.92750269284478      -2.09140789615689      -0.52709135697937
H        -0.89678985944421       0.37579373744545      -1.83720930346957
H        -1.90630036044447      -0.31520273630969      -0.56198939406149
H        -0.83382073807400      -2.42135503612006      -0.89504365881925
H         0.16094075311757      -1.69316683828987      -2.16059212405579
H         2.19278552885389       1.20055866925668       1.48396164692469
H         1.62819906020370      -0.38017303332308       2.15270694695035
H         3.14515906328977      -0.29443639186870       1.20386016364105
H         1.47589075508693       0.33981818351855      -2.00602665722701
H         2.33082257115579       1.48369524880665      -0.90932680043307
H         3.01899760655096      -0.15515606659311      -1.21925687516538
N         5.30074061855870      -1.28685328882996       1.23758498056521
S         6.62108834541493      -0.52228189787035       0.68607619298241
S         4.56375422966635      -2.45680944600790       0.42778407638358
C         5.92865836429621       0.93454637205385      -0.31299089588236
C         5.75343911321564      -3.94670627591218       0.26651114202650
O         7.23972829211001       0.14736265749669       1.81671398159522
O         7.40567470017937      -1.27711761600878      -0.28064841374946
O         4.19757265088391      -2.12940524342321      -0.96212263440370
O         3.48971461205567      -2.94530140032283       1.29619181253134
F         6.91087465745069       1.83198903772647      -0.54244038291318
F         4.92628328341169       1.57221637946689       0.37075532873918
F         5.41952733424116       0.54831946686174      -1.51045647276618
F         5.01039458342387      -5.07893120421351       0.34694516640903
F         6.65691659507456      -3.95120032271806       1.26636145886454
F         6.39035049224111      -3.94005257890248      -0.91664907289908
