24
C6H15NO2 optimized with ADF in AMS.
N        -0.01634938123532       0.14340010507988       0.23438043150781
C        -0.95063768549358      -0.91118172911283       0.76506367627827
C        -0.08060598714591       1.33966306686165       1.14609915708480
C        -0.40273620415604       0.52507214970243      -1.15335021608412
C         1.39065330851931      -0.39163864037765       0.25542517870107
H        -0.72182084011689      -1.04735170058595       1.85728265703292
H        -1.97815262018166      -0.54619908727110       0.63147962132220
H        -0.79596050371454      -1.82751125173642       0.17988442331603
H         0.52380321476741       2.14175435067752       0.70253632298296
H        -1.12934490701099       1.64861966093282       1.23676391779437
H         0.34239983962233       1.01592149693841       2.11519322738900
H         0.29882783072184       1.28298029897203      -1.52615906884984
H        -0.36384124347214      -0.36877979530414      -1.78900435066424
H        -1.42262270615388       0.93131983396668      -1.13998863994229
H         2.04904274118333       0.36806658890326      -0.18696903404218
H         1.64791671863658      -0.55321086363447       1.32709434141362
H         1.41547694057169      -1.31301733655081      -0.33990039890204
C         1.24847515268897      -1.09484180640321       5.36326232285642
C         0.81421512404558      -0.73462146047497       3.93823419892563
O         1.68666792695490      -0.19173608723953       3.18288708239977
O        -0.38953587724365      -0.98936682299611       3.63382018866238
H         2.33540468723244      -1.00453495028648       5.48901377754210
H         0.74749243072889      -0.41899666044720       6.07375727999565
H         0.92074344505132      -2.11651210381382       5.60550476837971
