35
C9H20BF4N optimized with ADF in AMS.
N         0.11448669248505       0.19586318876138      -0.08603803119456
C        -0.92615745437235       1.07480166762677      -0.77068226042407
C        -0.43344784061474      -1.21078612036343       0.03438645156313
C        -2.28026366182043       1.03065118464133      -0.08932293294295
C        -1.78856533753954      -1.28402009979360       0.72209734358111
C         0.46123100378209       0.72342382295585       1.29756837632921
C         1.34520179338554       0.18003174434423      -0.98561255245370
C        -2.81450986467329      -0.39576554772314       0.02106025331908
C         1.13112100482028       2.08031352674714       1.31573910812227
C         2.49645505702320      -0.66366845320462      -0.48186878691094
H        -0.99209796718679       0.69475906962098      -1.80171684549818
H        -0.51718719318804       2.09270014764811      -0.83758737380028
H         0.31844549499635      -1.80936164916109       0.56564049978701
H        -0.51226598173675      -1.58467625906011      -0.99941955527771
H        -2.95450183525405       1.65999748867980      -0.69355844283753
H        -2.23583124040515       1.50619111649341       0.90568458056340
H        -1.69952781878318      -1.00711801655442       1.78614374963531
H        -2.10187823780346      -2.34143700375189       0.70573690991873
H        -0.48022915482146       0.74820639582586       1.85871176071159
H         1.09748979498762      -0.04754790736826       1.75695618268988
H         0.98378880484964      -0.18096306562208      -1.95957750452207
H         1.64879026022489       1.22652730172703      -1.13112082232193
H        -3.77401191051053      -0.41645006130324       0.56121717268474
H        -3.00511081403905      -0.79254913283065      -0.99323163503167
H         1.27819581322002       2.36095722947552       2.37008610573072
H         2.10994589205784       2.08224872103899       0.81920867004694
H         0.53073474036200       2.86185534597603       0.82954347853576
H         3.31001482289019      -0.55847173608733      -1.21594339934319
H         2.89181662525365      -0.31355145980917       0.48243125186218
H         2.25855771574692      -1.73474696249047      -0.40752604097621
B         1.18879114080344       3.57039275494580      -2.17141061129264
F         0.19135532848525       3.92977469151401      -1.18819585984017
F         1.51326018876181       4.66463836369764      -2.96808571488698
F         0.66606998603176       2.48710990253083      -2.94888811228726
F         2.34487938898126       3.08526248627279      -1.45986271133906
