40
C12H8F18NP optimized with DFTB in AMS.
N         2.08242920724373      -1.40616823838075      -1.25263741467144
C         3.11801965977399      -1.16425078309539      -0.43660838914557
C         0.95917768977686      -1.98640141710116      -0.79773033555820
C         2.20157376248378      -1.13378350584001      -2.68486848456917
C         3.04388871716249      -1.49001581471577       0.90269566981324
C         0.83422554761543      -2.32115949921306       0.53332325392754
C         1.88952856815051      -2.07471712638925       1.40310310695344
H         4.00842172329651      -0.73468517560096      -0.87872099191186
H         0.18412470967716      -2.19081961033522      -1.52609058614689
H         1.29331378390502      -0.64584951335564      -3.03491670743005
H         3.06708714385961      -0.50042897434507      -2.86182599180530
H         2.33173055488840      -2.08662501189035      -3.19928208345708
H         3.90222173193988      -1.30870744596301       1.53663377676157
H        -0.07228113322597      -2.80415448708378       0.87419484776721
H         1.81944437593108      -2.35397412373461       2.44704873660074
P         4.35162988198018      -5.57860801084534      -2.17442575961851
F         3.54862939534068      -7.01831056105976      -2.42479314579929
F         3.93212779426315      -5.06497002954997      -3.71838764960287
F         4.74253037032983      -5.99380217555877      -0.59234834789054
C         2.63674843501803      -4.89226217144688      -1.47306689761190
C         5.96814900161854      -6.48268987312328      -2.77612205300470
C         5.24260682559398      -3.77782403917112      -1.95715775768945
C         1.56663083906710      -5.89101408066588      -0.96540511150653
C         6.18519679547099      -6.66780703277288      -4.30163562509822
C         5.97088047369454      -3.30816955696632      -0.66859723726902
F         1.97189799043106      -4.10212728620856      -2.35698906328300
F         2.90102522601220      -4.09636002895597      -0.40538656271411
F         5.97885603419778      -7.71030092392593      -2.23494904412959
F         7.04613774928614      -5.83602945077627      -2.29312545047552
F         4.27633312333754      -2.82396775301484      -2.15108138395123
F         6.11425192555111      -3.60559244227413      -2.96428542039040
F         0.60823869473629      -5.18425341558221      -0.32111118694707
F         2.05191986617814      -6.76974602417509      -0.10521824284637
F         0.97193636328309      -6.53237962077101      -1.96036231140951
F         7.27717218449570      -7.40080269357133      -4.52730129224007
F         5.15142174665550      -7.29161188893090      -4.85695531725763
F         6.34877477613168      -5.49720984537776      -4.91301117580332
F         6.18084829495620      -1.97656391486605      -0.74226274218861
F         7.14007830447314      -3.89416662530643      -0.49317340637164
F         5.23223731551891      -3.50147424175919       0.42776619677091
