28
C10H12F3NO2 optimized with ADF in AMS.
N         0.94803616455315      -0.05026528978712      -0.42445115164450
C         2.17865355088430      -0.65278050962726       0.12003696796499
C         2.07370152287847      -0.79249064627372       1.63499949060905
C         3.33572058769010      -1.40387780978748       2.23328780090896
C         0.91740428829902       1.29211776323754      -0.64844713611232
C        -0.11828925111840      -0.83776398421177      -0.72075764472830
C        -0.32290811865008       1.89836947140927      -0.93217095953640
C        -1.31163309751752      -0.28942141956848      -1.11187324421439
C        -1.42288965910265       1.11493301442221      -1.18257083556839
H         2.31316316926792      -1.63265896068285      -0.36522513813453
H         3.01261129400965       0.00115906832274      -0.19119490914066
H         1.19286673412281      -1.41331312674588       1.88163696029280
H         1.88797477724025       0.20527059907681       2.07042280983832
H         3.53719362454355      -2.39785744292743       1.80357882580441
H         3.23185121107392      -1.52104156984929       3.32165752027923
H         4.21218978268416      -0.76689819830798       2.03876371118931
H         1.78612070015732       1.84686152336371      -0.30173020266452
H         0.03959326540723      -1.90848459946255      -0.60674317358641
H        -0.36296307394251       2.98463322868573      -1.00332463524011
H        -2.15499716447101      -0.94061493143796      -1.33737325550015
H        -2.38014820258322       1.57260149451894      -1.43623256711696
C         3.06523264968796       1.55828252025250      -2.49034121940790
O         3.79241672131775       1.48979319284150      -1.48470157001176
O         1.80209761285875       1.42739407734807      -2.60253007719855
C         3.74597649809639       1.87421735933390      -3.85990933438217
F         3.36383112886846       0.98417350039738      -4.82401307888574
F         5.10039926952511       1.84081497087748      -3.79174781028274
F         3.38661165811912       3.12459711978201      -4.28799799283060
