52
C16H33NO2 optimized with ADF in AMS.
N        -0.07441516548853       1.30274832046674       0.09062689366679
C         0.32367563993528       2.48210191889897       0.94354557288325
C        -0.70704685842248       1.95366194036060      -1.12878773888808
C         1.14084594863238       0.51668611604806      -0.37873072062746
C        -1.06735536831663       0.43065584492139       0.82310010344023
C         0.84714396612049       3.52646077242969      -0.04304390757201
C         0.15713829364582       3.18779608533909      -1.39415395951411
C         1.88145277717308      -0.25482262755117       0.69565568050430
C        -1.56368915146986      -0.74836007603566       0.01385131759477
C         2.98909678990945      -1.07341608969316       0.02166063686849
C        -2.63678188201467      -1.52412468273781       0.77386020367177
C         3.73914418656042      -1.97091169775716       1.00144033250195
C        -3.11837135153993      -2.73358129373495      -0.02648800825364
C         4.78334262382424      -2.84273082985231       0.30781694766192
C        -4.21208661284924      -3.52198274945355       0.68703952571700
H         1.04576765928366       2.15485298592557       1.70323964235873
H        -0.59498538607756       2.82555440542308       1.44359570712227
H        -1.72854142277859       2.23369851688750      -0.82551628034857
H        -0.72679452965380       1.19314122680128      -1.94535263711999
H         1.80397177488764       1.24744942941461      -0.86413786389113
H         0.78092512887502      -0.20358604627508      -1.14697281564630
H        -1.89934940775445       1.10324832813927       1.09399140416078
H        -0.57917703107358       0.10879140325033       1.75665534459030
H         1.94193212397564       3.46783102019040      -0.13082381190168
H         0.60526057945979       4.53873612680079       0.31216255152560
H        -0.46682717742324       4.01596880321694      -1.75857672563628
H         0.90184403271924       2.97605230335572      -2.17530122560525
H         1.19909540615294      -0.96374166993547       1.19345367207478
H         2.31426983211848       0.39853404945815       1.47633674527804
H        -0.73087581819904      -1.41623802554197      -0.26409171617680
H        -1.96596575321010      -0.39951153153902      -0.95216192040174
H         3.70328922967529      -0.39230019112031      -0.47797005133998
H         2.52059989885363      -1.68357145716820      -0.77075646561857
H        -3.49951200411736      -0.86616041026083       0.99662516858822
H        -2.24336433756817      -1.86683088777577       1.75074280711848
H         3.00974483833176      -2.61773729412907       1.52282396131434
H         4.22339384542269      -1.35282436606587       1.78029342191520
H        -2.25304857898718      -3.38573190663804      -0.23851821000715
H        -3.48437457257440      -2.38503495140933      -1.00871220875085
H         5.31514766954356      -3.48409243193536       1.02657424321964
H         4.30678912405804      -3.49159651574352      -0.44431507673565
H         5.53148912195335      -2.22266276266514      -0.21273323416766
H        -4.53685090233348      -4.38636007269584       0.08875285566788
H        -3.85831936383987      -3.89968712476602       1.66074161939062
H        -5.09641384832440      -2.89027638251231       0.87453038233178
C        -0.26851965009809      -2.34041126487435      -4.25685845980850
C        -0.11855763051877      -1.41028604437989      -3.04761024373959
O         0.52521487225571      -1.87702007216055      -2.05653529495255
O        -0.66548819030677      -0.26510134058717      -3.12770786761609
H         0.68238885966913      -2.85497453861901      -4.45932623031801
H        -1.01313618081064      -3.11682447959012      -4.01866401971275
H        -0.60384867378593      -1.79072240982420      -5.14619147601672
