35
C9H20BF4N optimized with ForceField in AMS.
N        -0.05206663998971       0.24405669949373       0.15887900166846
C        -0.96961541619179       1.23534626613602      -0.48907006145010
C        -0.49788981810419      -1.15001171126188      -0.15011206591077
C         1.31306507822956       0.48602878468365      -0.41864893461268
C        -2.46118917152765       1.01844656778824      -0.17656654002273
C        -1.97760650717274      -1.41378628229734       0.18317657032086
C        -2.88673861891600      -0.40653969630571      -0.51258248677689
C        -0.01372951636151       0.47425011086242       1.62923628319895
C         2.44795709816902      -0.40937790576274       0.13654156508494
C         3.77475546831511      -0.08818306573805      -0.54716479314961
H        -0.86403032065417       1.19244951629958      -1.59858277850299
H        -0.69974696239030       2.27324685116708      -0.18754126575848
H         0.09689559708864      -1.89361175375642       0.42291047384434
H        -0.34512377581988      -1.37415105923458      -1.23100433999368
H         1.61106757592511       1.54750632187487      -0.24939160361330
H         1.28772569672591       0.34556561413059      -1.52446514161423
H        -3.06236039889288       1.72417519682152      -0.79001360232378
H        -2.68737158084838       1.24810368486311       0.88528058998101
H        -2.14375565743883      -1.38150503052656       1.28087835106939
H        -2.24839594273019      -2.43648980144226      -0.15787209536433
H        -3.93633939910976      -0.56574362964644      -0.18342320633844
H        -2.84292119291824      -0.56092791380205      -1.61325309242894
H         0.57141295884000      -0.31216077524487       2.15086103149168
H         0.43246681434823       1.46532453948946       1.86776016987764
H        -1.02045229875248       0.44704579596038       2.08842952311520
H         2.58777914555262      -0.24129162688565       1.22387593675962
H         2.23120419870496      -1.48206763278718      -0.03987633059944
H         3.70033921196809      -0.26120054040912      -1.64211303489065
H         4.05501523576719       0.96870816323719      -0.36028429144509
H         4.57446939475927      -0.74053947133886      -0.13712924466224
B         4.68772355474532       4.64196323409387      -1.69337885835324
F         5.13984718818045       5.62590638740374      -0.77457072300392
F         4.51702161353420       3.40744961868746      -1.01555766339276
F         5.64646095913101       4.48421431744223      -2.72926476924336
F         3.44760163763402       5.04939734720457      -2.25283166076044
