46
C14H26F3NO2 optimized with ForceField in AMS.
N        -1.89348719847585       0.13311088003003      -0.05512043193394
C        -2.10665502104680      -1.07337342929292      -0.91157374369598
C        -3.01550893654035       0.10809193406384       0.93362461186981
C        -0.58717334562817       0.02923685257513       0.67397339310651
C        -3.48352449887147      -1.63305854746102      -0.61022575373254
C        -3.72829050116386      -1.22474860662583       0.81442202902406
C        -1.97930362640650       1.36797155332206      -0.90151774722402
C         0.66594403487687       0.04586500938474      -0.23612899134466
C        -1.74715783748497       2.68453733063444      -0.13678136410159
C         1.93731918971113      -0.18018562199964       0.59290796453207
C         3.18786100519162      -0.20012099319880      -0.29496804524256
C         4.45592550506368      -0.36432517640573       0.55110628990552
C         5.70571781614252      -0.39558348182764      -0.32325906340039
H        -1.37563951563210      -1.88355389063774      -0.68658649452440
H        -2.01499963518940      -0.86143379607577      -2.00189918416888
H        -3.77493047358717       0.89562663661458       0.72810613859746
H        -2.68092601115813       0.26447688768492       1.98492488102487
H        -0.57192138695304      -0.91106409029066       1.27291399311808
H        -0.49022384123740       0.85265560566714       1.41606424581008
H        -3.51893140904866      -2.73834275263837      -0.72969550169026
H        -4.23933028405809      -1.15929025091024      -1.27530081264109
H        -4.81543008026595      -1.13624551992297       1.03289219426232
H        -3.26600107844138      -1.96415597320889       1.50574746476232
H        -1.25245316830593       1.32451669804473      -1.74153809720802
H        -2.98217261702887       1.42659152470726      -1.38409630465325
H         0.59564494372429      -0.74480950833325      -1.01233497497039
H         0.75708197397526       1.02769236529649      -0.74501423370528
H        -1.97880600445568       3.53958510067004      -0.80609796350527
H        -2.39955175200600       2.76192502350935       0.75649393997373
H        -0.68765393188252       2.78474065712946       0.17474956181583
H         1.86005105867922      -1.14938364692164       1.13370890660013
H         2.03165622408475       0.63615044018963       1.34304497089479
H         3.24998595018801       0.75103113635960      -0.86904959973677
H         3.11281635606040      -1.04437921073628      -1.01594290158484
H         4.54047884206355       0.48284750226950       1.26685403957665
H         4.40007993444059      -1.31104744536496       1.13221012601603
H         5.79545922210511       0.54825830715077      -0.90264822607588
H         6.60515626121772      -0.50469974976926       0.31867500357977
H         5.66380404445527      -1.25566099287038      -1.02540236244591
C        -7.46248663714056       3.78412531019131       0.52280581768685
O        -8.13089194411695       3.67647946306775      -0.49294886385652
O        -7.43158487384217       4.85112937183172       1.11454042575870
C        -6.68046489876997       2.61666698837611       1.04678202503907
F        -5.34376905783292       2.95741907633452       1.12497976401403
F        -6.81917874844238       1.52130453706102       0.21220784118769
F        -7.13851018216677       2.28290246362586       2.30728870648605
