40
C12H26ClN optimized with ForceField in AMS.
N        -1.63391102343747      -0.29551816107087      -0.15977872960468
C        -1.91295031062879       1.11903489819345       0.23651296198083
C        -2.63312062924507      -1.21680034564624       0.47084137785771
C        -0.28633083215515      -0.70989959305851       0.35621198140426
C        -3.36233034285243       1.55852293812043      -0.03239095458620
C        -4.10234755921692      -0.81954859069447       0.23343979044650
C        -4.35148130617363       0.62423076214069       0.65548389894325
C        -1.66790114023658      -0.45005417391019      -1.64061207516294
C         0.92397796810725       0.07069244381783      -0.21453774248867
C         2.23400727021016      -0.45266245828556       0.39045727004037
C         3.44999465159651       0.27037879338928      -0.20222333020293
C         4.75291251487087      -0.26857047142610       0.40011652107162
C         5.97039102055241       0.44290733137338      -0.18282743622500
H        -1.25321237203201       1.82423354583709      -0.31343662585302
H        -1.70879991239101       1.26343639150089       1.32255970262826
H        -2.48352613794152      -1.25154657752927       1.57541530002134
H        -2.49157555584972      -2.25853505074947       0.10168316786322
H        -0.25641158386427      -0.60657735421682       1.46609215210362
H        -0.11891691139665      -1.79173572248789       0.14380368705099
H        -3.50595702002140       2.58794689306384       0.36176095884340
H        -3.56395250147385       1.59315781123034      -1.12408960397132
H        -4.39366994344850      -0.96628884274086      -0.82717796362248
H        -4.75571913613085      -1.48638726035006       0.83716633905279
H        -4.24551393536922       0.71476696125604       1.75940251230136
H        -5.38845139958772       0.91619914859965       0.38222100874737
H        -1.05187898612593       0.32306427135166      -2.14698886259944
H        -1.29959259489874      -1.45463352580927      -1.94682170023495
H        -2.68733620085701      -0.33489382073536      -2.05603827043460
H         0.98062369161055      -0.05419185628788      -1.31573803733118
H         0.83953951858200       1.15061780213966       0.02604384623065
H         2.21660249406568      -0.30035393762068       1.49269472417782
H         2.32301332698573      -1.54280706984170       0.18671113631112
H         3.36858825698366       1.35996509807485       0.00723851255267
H         3.46599535836935       0.12257661263958      -1.30487099496236
H         4.84004358725280      -1.35781674528900       0.19287532352680
H         4.74374763229282      -0.11925278290843       1.50130461679858
H         6.01986344679981       0.28752743036477      -1.28178104204251
H         5.92171437353955       1.53146835849808       0.03298649815143
H         6.89444604687508       0.03185623920096       0.27588013913482
Cl        5.82688287524025      -0.62365235113385       4.30654868498147
