34
C8H11F6N3O4S2 optimized with DFTB in AMS.
N         0.67105545731937      -0.99710025910915      -1.01218817962901
N         2.41971013092111      -0.63481121879424       0.18700979813272
C        -0.18780286355662      -1.47438074118896      -2.09272459359948
C         1.99895916231734      -1.08115653182639      -0.99404623977489
C         0.23369141058378      -0.51035714877223       0.19008346545588
C         1.33855003608145      -0.28535351294684       0.94780812519347
C        -0.98346667132087      -2.69312255875923      -1.63871508553137
C         3.79485838699765      -0.66955632388372       0.65523431667617
H        -0.85393968529363      -0.65620174661303      -2.38373090604926
H         0.45922432033325      -1.72916986858885      -2.93527815959063
H         2.62065843035557      -1.45863568164797      -1.78734941144850
H        -0.80990264541625      -0.36752872532328       0.40753598638313
H         1.44165789561433       0.08150338197767       1.95370714294271
H        -0.30613910475360      -3.49547139868811      -1.35348844083443
H        -1.61060341533261      -3.03155748582243      -2.46204141975029
H        -1.61673527129201      -2.44461992059701      -0.78827092944644
H         4.46398027664879      -0.46890950899679      -0.17919068195754
H         3.92628681067548       0.07899608499527       1.43403714170532
H         3.99740533837596      -1.66885582273217       1.05360227762116
N         3.67504317482361      -3.82136695114299       0.75132010476110
S         2.18363072321540      -4.00721993360249       0.20021891061915
S         4.84485601010785      -4.56055368857024      -0.08189655963413
C         1.64508961527524      -5.79234283666639       0.45345659573089
C         5.47159816795624      -3.23985563337399      -1.25971838428426
O         1.32780019671965      -3.23635255816972       1.07979777810460
O         2.00386590326748      -3.76926488354874      -1.22674753466166
O         4.41138697875663      -5.64828547149951      -0.91479663554926
O         5.95632809199549      -4.74661847621744       0.80569268915848
F         0.40211877848076      -5.77992759457560       0.91708601673007
F         2.42336083602269      -6.39151359880179       1.33247975259143
F         1.66400607708168      -6.45174373652786      -0.68499168161424
F         6.31491364809479      -3.74062667692618      -2.13912450647335
F         6.09173278819915      -2.28845416010092      -0.56026081856193
F         4.47280206664483      -2.64444043405874      -1.91897711221564
