46
C14H29NO2 optimized with ForceField in AMS.
N         0.97662546475481      -0.30792700531328      -0.00113929579815
C         2.04821915015083       0.07503313109068      -0.97201803926528
C         1.64427877818934      -1.22890422476359       0.96899908948413
C         0.48071600798682       0.90693100687747       0.72509024604019
C        -0.12023710734783      -1.02886045453695      -0.72622314033574
C         3.26680978078985      -0.78880212425965      -0.70776700571713
C         3.14183041590631      -1.15366729233681       0.74442547943261
C        -0.26859794533673       1.92673224888262      -0.16729615194237
C        -1.30875881051565      -1.45739309575963       0.16870531825177
C        -0.57775548658367       3.21026876011420       0.61251712548785
C        -2.30025316505749      -2.32051490687520      -0.62110379775931
C        -1.31397863631659       4.22363268254439      -0.25963056593819
C        -3.48050888893420      -2.74565800991868       0.24820429737215
H         2.37280798614461       1.13369333599077      -0.84803785253777
H         1.73649797948991      -0.03078882390455      -2.03624633362548
H         1.34923497037213      -2.29203286901163       0.81188760160673
H         1.40919635713089      -0.99456563296206       2.03232318187496
H        -0.19275754314082       0.61544169352016       1.56121233774876
H         1.34096577644659       1.42531727461958       1.20933814844087
H        -0.51579200032170      -0.40339921873698      -1.55682950724284
H         0.29635818343828      -1.93869545192335      -1.21805653058557
H         3.22365752009128      -1.70695452424332      -1.33450660796971
H         4.21318054949935      -0.24154482726474      -0.90981302066841
H         3.57980305389242      -0.34987131134600       1.37656396773268
H         3.64402906868571      -2.12066947572644       0.96655511168278
H         0.33745480563837       2.18539625557262      -1.06061360288036
H        -1.23011259120017       1.49449320283298      -0.51442796904361
H        -0.94869792404855      -2.03379349910853       1.04658387318855
H        -1.85016694955373      -0.56223887486056       0.53904230205097
H         0.36856715190124       3.66913132182619       0.97289478220328
H        -1.21006025568382       2.96767308681681       1.49440522205720
H        -2.68423414137411      -1.74531602013617      -1.49183126936643
H        -1.78770744207971      -3.23166990847002      -0.99929289145795
H        -2.27109276978740       3.79562737624559      -0.62691142656090
H        -0.68481752707304       4.51443000151793      -1.12772021531241
H        -1.53792899052650       5.13332469130556       0.33651058669732
H        -4.01975068725826      -1.85369349614031       0.63260384702177
H        -3.12784315950819      -3.35909106994989       1.10445744632267
H        -4.18659495333643      -3.35330501299086      -0.35629841555917
C         9.04378793103004      -0.73453982703348      -0.45358295919437
C         7.76601996640401      -0.15422879771320      -0.97244463641739
O         7.57804274948367       1.05013942538855      -0.92022931290167
O         6.90919919026389      -0.88072818090186      -1.44950838540154
H         9.90149769418840      -0.31510689713509      -1.02011642245599
H         9.15934132335025      -0.48228996500822       0.62135295012993
H         9.04674133325555      -1.84012685381504      -0.56421230468942
