38
C10H20F3NO3S optimized with ADF in AMS.
N        -0.13894166904877       0.49089057527684      -0.24760865504679
C        -1.02536905861935      -0.71655867414066      -0.44552468607980
C        -0.67690047801933       1.06988676017547       1.05332879882569
C        -1.16459147394615      -1.33334518504706       0.94473391936484
C        -0.97198052669421      -0.14808126788186       1.92874269501647
C         1.31524651442657       0.08284091191398      -0.04887923822989
C        -0.29043604327102       1.45970428303528      -1.39622524521940
C         1.97873240198073      -0.52733726406305      -1.26896950698890
C         0.55717402061910       2.70904702613919      -1.27022032863548
C         3.39679439403869      -0.97470201299375      -0.90613862299121
H        -0.58974307729491      -1.37240564927080      -1.20912195181023
H        -1.98862297225400      -0.32891895610201      -0.81326845836786
H        -1.59283018090162       1.61691182441358       0.78011433150671
H         0.07657416442595       1.75575732138235       1.46651403267234
H        -0.40274124920535      -2.10946078286224       1.10775895832051
H        -2.14680731012617      -1.81736569068758       1.04661696462934
H        -1.86904732131727       0.03438348370671       2.53781650665035
H        -0.12857153538226      -0.31646779525915       2.61439166374527
H         1.32938129030286      -0.60603956034513       0.80589866772471
H         1.83012793552044       0.99182534592910       0.29823130424812
H        -0.04926506577206       0.89704767252531      -2.31049434252108
H        -1.36273564669247       1.70953453696446      -1.42684564291573
H         1.41162958595010      -1.39579392113427      -1.64542629273157
H         2.03386699229607       0.20679392151394      -2.09028903815636
H         0.38538597012450       3.23711034494480      -0.32305800675694
H         1.63171377041395       2.49351672150776      -1.33108882150172
H         0.29761892136738       3.38369065320083      -2.10050233098828
H         3.99760632689657      -0.12428992184769      -0.55639911405512
H         3.37932642010150      -1.72083391856795      -0.09742922954906
H         3.89687299916904      -1.42150904744713      -1.77813949768637
S         2.42866764756012       2.00220933094808       2.86776427825410
O         2.27241031310492       2.80806811123492       4.07647624113059
O         1.99924235634695       2.65764656233773       1.59992275936659
O         2.02013291730768       0.58308322597632       2.95722436009034
C         4.28886945881828       1.88611343869381       2.63115648938976
F         4.88502918881902       1.26519922292415       3.68050823942503
F         4.85322547052246       3.11325333964432       2.49306242691413
F         4.59208246603204       1.16693504716138       1.50250298025692
