28
C8H14F3NO2 optimized with ADF in AMS.
N         0.84805619092543      -0.19425251476926       0.12408572457884
C        -0.13210491696347       0.94822603342822       0.20070934934793
C         0.02921893598286      -1.36464074529992       0.64551264630304
C        -1.47059575520538       0.35742298931789      -0.25152462255828
C        -1.34402717466289      -1.17106560066248       0.00650343035073
C         2.07406020819706       0.04203346664126       0.94827852618062
C         1.26124762490856      -0.46037441817564      -1.29536617903086
H         0.23861481006757       1.78742707534672      -0.40357037905313
H        -0.16041338483985       1.25036301012074       1.25823065060933
H        -0.00517358177508      -1.24215426101368       1.73742491775070
H         0.58568748843480      -2.28558935890175       0.41315313205824
H        -1.66013001521927       0.56757644453505      -1.31430263606541
H        -2.29293739433775       0.81183815311627       0.31889188905702
H        -2.13023331525077      -1.54616959303169       0.67640632332225
H        -1.42761217678319      -1.73594940927770      -0.93342536399684
H         2.56284555290615       0.95480538286278       0.58320771603778
H         1.77367863663430       0.15334757012564       1.99703980199824
H         2.70194181198193      -0.85781557303910       0.82186708598731
H         0.36521775401221      -0.60267519620072      -1.91012008648984
H         1.82705581044956       0.40825324287568      -1.65488666364363
H         1.88532691160492      -1.36654301008100      -1.28461307449627
C         3.14220716557387      -3.61128098065128       0.88988882406490
O         2.63506873495439      -2.72021061155558       0.13299340769729
O         3.60734280364192      -4.72647637043969       0.64742217235692
C         3.15950493262678      -3.16544506570179       2.40273909793713
F         3.59739212135889      -4.11436971553555       3.26237087326489
F         1.89445220473555      -2.79184650170563       2.84457799722056
F         3.95776626014088      -2.05267734012775       2.59560296921057
