64
C18H26F18NP optimized with DFTB in AMS.
N        -2.10989821449935       1.59862190480988      -0.76842108166029
C        -2.68854395044872       0.76947909558464      -1.88950833956861
C        -3.26163124974208       1.84367325502520       0.16703601409477
C        -1.05255415859698       0.82008221623532      -0.03968819139192
C        -4.01132888049232       0.18595797891194      -1.39020294143428
C        -4.11424137274466       0.58972146084866       0.08073459444720
C        -1.58707596084307       2.89584950247001      -1.31859290523144
C         0.23845524912804       0.60515140987613      -0.82853780595786
C        -1.01087259125167       3.82378647558495      -0.26237538347492
C         1.13297628007915      -0.39254650403773      -0.08258424702767
C         2.45148190189467      -0.61151348164724      -0.83090850394946
C         3.34894918758194      -1.60842731885398      -0.09088121418869
C         4.66452197528038      -1.82897232926334      -0.83506767490691
H        -1.97172409558251      -0.00250652760636      -2.16743871967467
H        -2.84954765006014       1.42271624981853      -2.74423169779307
H        -3.81390757739667       2.70389700919651      -0.20922644759406
H        -2.88657486431829       2.05453420064693       1.16809949962610
H        -1.49770428332820      -0.14442191478740       0.21727367159951
H        -0.83172327516399       1.35330607396895       0.88790238044706
H        -4.03521157422450      -0.89784241668756      -1.51240087738027
H        -4.83423881985338       0.62032412033462      -1.96088440191517
H        -5.14281812151309       0.80660707610338       0.37038623539223
H        -3.72674451035240      -0.19630984027861       0.73454867900262
H        -0.83884849346387       2.65120331342370      -2.07469842256565
H        -2.42760604174524       3.38529921517431      -1.81053306306151
H         0.02359084398205       0.21868671664307      -1.82801621521196
H         0.77478042097483       1.55059561721270      -0.94111143842281
H        -0.70758830204250       4.74193724844564      -0.76476680082697
H        -1.75855894019776       4.07822861439514       0.48685143214845
H        -0.13866643953180       3.39951950009799       0.23258993730583
H         0.60610062722556      -1.34710725938529       0.02084202928231
H         1.33976383018765      -0.01312858134453       0.92373209159481
H         2.97357857117208       0.34569559959109      -0.93387403721409
H         2.23918887871784      -0.98633800176020      -1.83781003383361
H         3.55770543866866      -1.23129625488896       0.91594901872335
H         2.82308625491655      -2.56361275303760       0.01200040465263
H         5.21224831186454      -0.89050155963680      -0.92961934279344
H         5.28538629706792      -2.54058183589609      -0.29091578623220
H         4.47692036936106      -2.22386591534149      -1.83432136871759
P        -4.97024654088420       4.27325900934560      -3.30927041207696
F        -4.61518597773826       3.01942750856868      -2.18019671899305
F        -6.42346025561408       3.56867289459718      -3.71857611061688
F        -3.48466896765147       4.97471588457460      -2.86002685683127
C        -5.85932923571571       5.08788223394086      -1.75633572007874
C        -4.04765731551496       3.00911946800220      -4.55830488321516
C        -5.17520786667919       5.70062303967344      -4.68043227974918
C        -4.98512349552257       5.74240436164727      -0.65462011329525
C        -4.10191777560262       2.96193948713324      -6.11311612165484
C        -5.77677475422578       7.12188269531506      -4.49675066639302
F        -6.57102509500559       4.13301288493821      -1.12695096605644
F        -6.73775025418872       6.02053636262188      -2.16103975123896
F        -4.50366002679869       1.77765797816659      -4.21871303155947
F        -2.72681186309810       3.00818213675808      -4.24433883721847
F        -5.85805503009319       5.14529153346551      -5.70027837625898
F        -3.91557742599807       5.91127785325986      -5.12084211357130
F        -5.73632147895352       6.13279994984554       0.37322129809437
F        -4.30974752022317       6.79358933642043      -1.09450497034001
F        -4.09210113400410       4.85609670578457      -0.17179925626053
F        -3.38445775125713       1.89852042592578      -6.50709405163894
F        -5.34357974781549       2.78585544317020      -6.54592239799835
F        -3.58156736430962       4.02516276589206      -6.70598635619844
F        -7.10031169889295       7.08714294433481      -4.40787623358195
F        -5.46085991032718       7.87542983775896      -5.55039095779440
F        -5.28478208459544       7.71893322131324      -3.41275598506150
