38
C10H20F3NO3S optimized with DFTB in AMS.
N        -0.42490074121789       0.41347628211382      -0.02253466225352
C        -1.13060523528201      -0.59849580890469      -0.87051657031584
C        -1.49512863763515       0.86425656588910       0.93043459145190
C        -2.02932133660798      -1.36611567908765       0.09432882969341
C        -2.32235434632254      -0.38154021293536       1.23560559290427
C         0.69192708160469      -0.21902951752387       0.76214269434283
C         0.06024668175367       1.54846199496051      -0.87039924534596
C         1.86312616494478      -0.74686652677783      -0.06005914630520
C         0.72386144208208       2.66325804921670      -0.07608178621220
C         2.85305321212230      -1.41488210438900       0.89676808099928
H        -0.40458931301930      -1.22418233947478      -1.38800800538357
H        -1.72569326785273      -0.05470029138016      -1.60855467556935
H        -2.09188324604200       1.62620245051843       0.42371529270567
H        -1.03398184139188       1.28460852292908       1.82261350062410
H        -1.52068416014384      -2.25611071901641       0.46967563413429
H        -2.94082484127674      -1.68458040659147      -0.41421899760612
H        -3.38195375182228      -0.12473718051871       1.28083582805589
H        -2.02766742534156      -0.80122225392681       2.19893896852333
H         0.24885171403776      -1.02399938195136       1.34946859551920
H         1.05520402384819       0.53502989502353       1.46011906348499
H         0.75341880667464       1.13170393582760      -1.60496521334791
H        -0.81090515150621       1.94013644488365      -1.40324952704527
H         1.53165100541418      -1.47371908709562      -0.80820585312061
H         2.36576172225534       0.07234755267573      -0.58220867793106
H         0.04545367325455       3.07722455981259       0.66627754363509
H         1.62574264032688       2.32059456144476       0.42641786647715
H         0.99779631745436       3.45385005482240      -0.77423623980589
H         3.15073677434147      -0.71625245437154       1.67830584063571
H         2.39621202782159      -2.28507366311379       1.36798776630869
H         3.73812033318827      -1.73512819620367       0.34812609928587
S         0.82690903818246       0.52196666204822       4.17336073957509
O        -0.31578229190387      -0.08122207024937       3.48701179013654
O         2.02744823030049       0.57264461535727       3.35377288852524
O         1.00926840479278       0.11967740358609       5.53901034426661
C         0.31537705108904       2.30930264158212       4.23490080013198
F        -0.88554050630882       2.47034514204717       4.77871171000237
F         0.23522049825173       2.76589601674167       2.96277798178431
F         1.17793996833355       3.07909149263165       4.87877334513871
