49
C15H31NO2 optimized with ADF in AMS.
N        -1.20072284032052       0.39791696704098      -0.18942899781819
C        -2.29458722528220       0.40419321173868      -1.22926468534095
C        -1.42982868620797      -0.75888393317920       0.75753113841768
C         0.13581745311653       0.21008257136230      -0.92276286951031
C        -1.16191785946737       1.70668108056012       0.61009421607945
C        -3.68364644561265       0.46863136454706      -0.61919069989528
C        -2.82582823167748      -0.79035747756195       1.36382579050078
C        -3.91564633748192      -0.73269647666291       0.29606437208331
C         1.26939978847210      -0.33409646054963      -0.07347858543654
C        -1.34069367465113       2.95949664958409      -0.22067543513810
C         2.58482067116801      -0.20829081646352      -0.84879409950837
C         3.78607771384953      -0.56149013198606       0.02407455565151
C         5.11795504645066      -0.36881756985877      -0.69621784261426
C         6.31894910181796      -0.71390832298958       0.18015746584243
H        -2.17916926357536      -0.53290656426314      -1.79859177844163
H        -2.08461818254565       1.24395516794907      -1.90549435847192
H        -0.65726450444035      -0.68248795088777       1.53407712874810
H        -1.24717243605828      -1.67223010672186       0.16770303667959
H         0.43362214842055       1.21982526059915      -1.25407774175518
H        -0.07869334194791      -0.44770843962568      -1.78128013347864
H        -1.94964748278853       1.62710784352555       1.36998098064424
H        -0.15927930096840       1.74061302404822       1.10475013710564
H        -4.41413690689503       0.48256067503978      -1.44519536929250
H        -3.81406281873028       1.40945544551543      -0.05873567041763
H        -2.95248266750649       0.03831303256839       2.07957740779672
H        -2.89949205934820      -1.71989126227553       1.95276476203534
H        -4.91064795000582      -0.67983621134518       0.76588838303649
H        -3.88822312140050      -1.65845771171445      -0.30817228488535
H         1.36486246666315       0.28742819681338       0.83641485372329
H         1.10537714114214      -1.38947962256402       0.20755225328855
H        -0.57367978476868       3.03327521439382      -1.00467561652942
H        -2.35553033959075       3.08916927927019      -0.62817706901121
H        -1.13393627442386       3.80317588471421       0.45611941845338
H         2.67974192211780       0.84039910751423      -1.17947251598486
H         2.56992496859874      -0.85253026534088      -1.74960814896399
H         3.70598060388724      -1.60894675090851       0.37626136721441
H         3.76136321151289       0.07863106432731       0.92556104411701
H         5.13391713698589      -0.98963058337765      -1.61160401582597
H         5.19170697476787       0.68174215458991      -1.03158383941728
H         6.27724009116147      -1.76599545883915       0.50767072126739
H         7.26746580382561      -0.56293761879285      -0.35783478010277
H         6.33618839628136      -0.08378482901868       1.08408440587877
C         3.25477750583895       3.76460875892608       1.02194292865947
C         2.04850731101719       2.86367929555846       0.73190372341656
O         1.66365520438894       2.81189048688820      -0.47608490287080
O         1.55747409775742       2.22610760129992       1.72015505451031
H         4.16775244915426       3.25655584727599       0.67194048024016
H         3.17130426950678       4.70316865126233       0.45506505586000
H         3.35638903319230       3.96819679401414       2.09638078766058
