59
C17H21F18N2P optimized with DFTB in AMS.
N        -2.89247247602265       0.63462404005836      -1.51725037813307
N        -4.05782216840658       0.12706656274422       0.21863141890943
C        -1.17515793467989      -0.37388863542231      -2.97263618741574
C        -1.63262819618817      -1.83044315903511      -2.86484404353705
C        -2.34745837117345       0.60775508994418      -2.87215398171759
C        -0.46624954011358      -2.80696082592692      -3.03509691335691
C        -0.96292281685180      -4.25442719337746      -2.95400723949540
C        -3.81977596310003      -0.19625539307311      -1.04971257942443
C        -2.52411854455703       1.50183164998988      -0.52521811166794
C        -3.26584855696307       1.18702726095695       0.56982220556686
C        -5.08840070646136      -0.48175452476270       1.05641021908755
C         0.18382398674221      -5.24840206838822      -3.12499899035769
C        -6.31466339004711       0.42346876773432       1.10708618288972
H        -0.69909298541215      -0.21056968594477      -3.94362774763326
H        -0.44198408341569      -0.14377934320027      -2.19283494101174
H        -2.38303367484610      -2.02683033172482      -3.63501430093059
H        -2.10195022026462      -1.99556648027671      -1.88924095205012
H        -2.01927341870292       1.62180673226528      -3.11267801553876
H        -3.15544016755095       0.31981015242380      -3.54792913944250
H         0.28255410301516      -2.62701206975408      -2.25527776008168
H         0.01311306106342      -2.63694249493034      -4.00508965900048
H        -1.71182896411405      -4.42327919067774      -3.73402147068815
H        -1.44717414868067      -4.41812684376168      -1.98549932767223
H        -4.29183984805658      -0.99152409038700      -1.59804391787881
H        -1.78279489951723       2.26639183954439      -0.67917197889544
H        -3.29045329305636       1.62000670050772       1.55444816521326
H        -5.34013783190295      -1.44879266140033       0.61698609469556
H        -4.66904879024716      -0.63271060580209       2.05478290732190
H         0.93254813873657      -5.10928090596812      -2.34339847356358
H         0.66540658646082      -5.11384971403094      -4.09459085242448
H        -0.19586103336893      -6.26836671422740      -3.06470649208890
H        -6.06060060259004       1.39021104983537       1.54080199429301
H        -7.07849584111175      -0.04992199280627       1.72128991154638
H        -6.71171550989126       0.57649648151646       0.10490913841563
P        -6.08465432290797      -2.52568457264849      -3.86608010778475
F        -5.44654701349072      -3.88496445542765      -4.59543941409845
F        -4.61411465068827      -2.33840126746855      -2.98566544490922
F        -7.53266633107225      -2.64132813955169      -4.68204813698127
C        -5.34469297382538      -1.48429718866785      -5.34838441477745
C        -6.77059789429134      -3.75172030658770      -2.50078679043680
C        -6.67749334708127      -0.85596161539814      -2.89318594981648
C        -5.02988476676819      -2.22150850222312      -6.67885075011512
C        -5.77650490906941      -4.27838543532470      -1.43060583849131
C        -8.07802412472924      -0.20336298967895      -3.02607745707456
F        -4.18582492285813      -0.87107076146109      -5.00033928046411
F        -6.22253465111020      -0.51014951873730      -5.64302763937459
F        -7.25980622311027      -4.83334259715132      -3.12318097493796
F        -7.79648215054081      -3.19444638342206      -1.82817975860721
F        -5.78293525599801       0.13115186923973      -3.15971677220429
F        -6.52535621590033      -1.09989648549429      -1.55982057990570
F        -4.78920030638173      -1.32574466994721      -7.64121604824613
F        -6.03696126774485      -2.98610785919114      -7.07583245324082
F        -3.93957069956108      -2.97437101318154      -6.55267010395809
F        -6.36436368161598      -5.17959784373713      -0.64602785541010
F        -4.70771343197820      -4.84263184917304      -1.97724075594468
F        -5.34901341531336      -3.28235865683428      -0.63224990674990
F        -8.19685004342323       0.76715970103914      -2.10459411654774
F        -9.05241598911074      -1.07770806376050      -2.81641192916063
F        -8.25306673935309       0.34890138524635      -4.21801118549558
