41
C11H22F3NO3S optimized with DFTB in AMS.
N         0.19661269891152      -0.60363974350325       0.16267287266112
C        -0.86147659935936       0.19932433349703      -0.51983487956948
C        -0.24991891075505      -0.61887342009246       1.59523850338513
C        -2.17197195947009      -0.19565117674893       0.15902656577845
C        -1.76708824619208      -0.75753664984965       1.53191782840575
C         1.56343001922988      -0.00335226411146      -0.04259890731535
C         0.20203389423116      -2.02780303640479      -0.33276821372571
C         1.86835217989782       1.24556330132303       0.78158047440097
C         0.59865752331590      -2.21323593820958      -1.79546635367828
C         3.16804860306786       1.86744293665758       0.27020484113870
C         0.85963524158732      -3.69974696805138      -2.04302214050314
H        -0.63778561342130       1.25494460171170      -0.35282214335954
H        -0.84675489297495      -0.00277932820507      -1.59041285975067
H         0.24859083205833      -1.42962543667242       2.12485382570039
H         0.02461675642302       0.33238412279930       2.04885972244906
H        -2.82085625790804       0.67648422522547       0.25652751012359
H        -2.70203626261091      -0.94772601410361      -0.42882750239790
H        -2.07090461642237      -1.80156511988544       1.62868052370543
H        -2.22824820901317      -0.19583646656016       2.34592735665850
H         2.29172445657103      -0.77808430625922       0.20326756949604
H         1.63640863417709       0.23209701338983      -1.10723922567591
H         0.90459464389191      -2.56880978813762       0.30128228485259
H        -0.79762793088008      -2.43377309228064      -0.16770172144925
H         1.05922296306691       1.97900033175951       0.71031837095053
H         2.00684819635831       0.97027396148102       1.82938275380620
H         1.51066938632617      -1.65874547673697      -2.02542405179411
H        -0.19389925544161      -1.85983329086179      -2.46266905218336
H         3.98565983257668       1.15190467623853       0.35506642125131
H         3.07075583019849       2.16872825978809      -0.77385046634104
H         3.41159228000563       2.74618239353965       0.86622846955391
H         1.69752141240040      -4.03652679872298      -1.43238719972779
H        -0.02054418975157      -4.29261506639353      -1.79311738857697
H         1.10430750306525      -3.86020952107364      -3.09251857090823
S         2.61782346327427      -2.53867814689427       2.14576521231588
O         3.08969843532545      -2.71830610763836       0.77843878225402
O         1.36047954954164      -3.22012858059990       2.42535703501409
O         2.64402787103960      -1.15411846226985       2.59798822233881
C         3.87018965365347      -3.40204053582758       3.19385067502385
F         5.07492277663307      -2.88086669726062       2.99731643068073
F         3.91745072657894      -4.69364997858245       2.89419773054461
F         3.56409686359351      -3.27913935917313       4.47904796276700
