44
C12H11F18N2P optimized with DFTB in AMS.
N         1.43235551754972      -0.33870775336242      -1.98148113164338
N         3.14383090642198      -0.40702417178187      -0.68106082066414
C         0.26394173162005      -0.77111769166631      -2.74367120128297
C         2.09093069420123      -1.09679249294999      -1.10830535148557
C         2.07484390772644       0.86168115129169      -2.10963716155477
C         3.15825509281171       0.81817286338386      -1.29038843715404
C        -0.99618886440679      -0.64561048755596      -1.89695163930286
C         4.20821267494976      -0.94695965652670       0.14890238228542
H         0.20306785814439      -0.14573273239467      -3.63672497696190
H         0.43435683236102      -1.80813020739260      -3.04348441148335
H         1.82795578677349      -2.09579745223057      -0.81009980366896
H         1.72408481136346       1.63004822396820      -2.77583784610332
H         3.93745360012837       1.53725073786965      -1.10943826554495
H        -0.91833676509114      -1.26815758519008      -1.00615111571703
H        -1.85314477099468      -0.97464896087024      -2.48249529975391
H        -1.15166665011650       0.38902549813582      -1.59185812155036
H         3.85581861779305      -1.86195783342451       0.62008403955611
H         5.06024456258355      -1.17430765087600      -0.49335287991557
H         4.49015111717415      -0.21336175237503       0.90281302822711
P         3.75019381046859      -3.61243071431387      -3.39482628311943
F         4.48553725686628      -2.71345367050184      -2.13324325579253
F         2.23140538912319      -3.07260186045055      -2.78184386280179
F         5.21733766907007      -4.13253570984222      -3.99494287637108
C         3.94517225500622      -1.95905252497245      -4.44585507333576
C         3.79157588159160      -5.09042202566105      -2.10270438588309
C         2.68081792709780      -4.55014245169762      -4.77756225869850
C         5.14832684262422      -1.02748420714079      -4.12289226737380
C         2.77128680269833      -5.07507273037700      -0.93453592553753
C         3.34018908658324      -5.43392993950175      -5.86993188417973
F         2.85135104681771      -1.16509095370123      -4.33407450737567
F         4.06950324855658      -2.28074975592232      -5.74256551471748
F         5.00348700235950      -5.09291563327365      -1.51974808968558
F         3.65762305915492      -6.27227889873503      -2.72486531090725
F         1.94420047135729      -3.61828975284255      -5.41825155848480
F         1.80373246094262      -5.33620779111969      -4.12029592006152
F         5.31093026403118      -0.13650711784200      -5.10271975007893
F         6.28778920466118      -1.67980028748940      -3.96697161367420
F         4.91518451734110      -0.32498493604724      -2.99967707136058
F         2.87594137242652      -3.92670998101050      -0.23372750544171
F         1.51380485970424      -5.17386611678666      -1.34645237852748
F         3.00572596308852      -6.07130944942523      -0.08522255580449
F         4.16021372910216      -4.72375787630987      -6.63755695642836
F         2.40236360800211      -5.96772315833695      -6.65502141216811
F         4.03499956173148      -6.42768771125074      -5.32668486207224
