47
C13H28BF4N optimized with ADF in AMS.
N        -0.92297881090238       0.59528362442218      -0.00003574172116
C        -1.97219297580363       0.38982200133241      -1.08675740141981
C        -1.50215071780951       1.54447014023108       1.04493846735275
C         0.26867529381076       1.26062547065028      -0.67152685331047
C        -0.53712397060815      -0.70451339665311       0.66587665626119
C        -3.28458472803921      -0.14743432910526      -0.54527962263645
C        -2.82366145428207       1.05919573173165       1.62186555871132
C        -3.85158724812589       0.78665180472326       0.52452037356516
C         1.47931166980549       1.49194132365236       0.21707354598432
C         0.10918270294111      -1.74112217579294      -0.23642239560664
C         2.56060323974928       2.25803176639000      -0.55355101278128
C         0.41637074916022      -3.01830664436371       0.55043485539830
C         3.80150446168622       2.51638474244309       0.29721747824294
C         1.07005976031251      -4.08780032365572      -0.32024487675518
H        -1.52094103570951      -0.27308111445888      -1.83853618386537
H        -2.13670076488267       1.38273764061275      -1.53518258956437
H        -1.65001709545604       2.50801946054521       0.53167814505334
H        -0.73810582685606       1.65219737827931       1.82720760416109
H        -0.12777618859163       2.21080062125718      -1.06481319177308
H         0.53288398473481       0.61885255294870      -1.52639994252517
H        -1.45361350832386      -1.11383667559270       1.10833665826503
H         0.13556294786492      -0.43726052609675       1.49495303845181
H        -3.17519321215669      -1.18176038835886      -0.17170115992271
H        -3.97512262969435      -0.19326102131941      -1.40434437347219
H        -3.18279661596538       1.87468501950233       2.27214578347555
H        -2.67885380209873       0.17779989789363       2.27223353154636
H        -4.11183876892814       1.74404501181287       0.04517438470773
H        -4.76989450795176       0.36074505261778       0.95966289008804
H         1.90585181520256       0.53770827570914       0.57400817189895
H         1.20197867681269       2.08372691266801       1.10516273023191
H         1.04651569796509      -1.35463716600136      -0.67071438953583
H        -0.55966916538713      -1.99464979959150      -1.07594455802612
H         2.13875493090108       3.21565723997160      -0.90422795506982
H         2.84063414621208       1.68812805946099      -1.45775654338541
H        -0.51985225045995      -3.41286043772494       0.98512709431768
H         1.07812010732058      -2.77454377806710       1.40125889260096
H         4.25832829312245       1.57239448916170       0.63543719140833
H         3.55017924184139       3.10955146815706       1.19086815312965
H         4.56182477768366       3.07357493846685      -0.27068355081764
H         2.02091864115711      -3.72619015068088      -0.74262786365828
H         0.41425828574261      -4.36879410514825      -1.15937952506533
H         1.28357785723796      -4.99808861805027       0.25988091293289
B        -2.89486730580117       4.00119946588180      -1.36471406648834
F        -1.47334273415482       3.72372501410594      -1.48977688748220
F        -3.20598603596632       3.99710506263345       0.03241629555200
F        -3.59481040537601       2.91895524687045      -1.99124046290714
F        -3.20856329403351       5.22165818272861      -1.95624162724732
