30
C8H20ClN optimized with ADF in AMS.
N        -0.01527425298490      -0.03187467675586      -0.02438289508915
C        -0.86147969128901      -0.16702263049005       1.22649532312089
C        -0.87305151801112       0.13754108501362      -1.27798468366842
C         0.82162997399722      -1.29432590348813      -0.17845296314979
C         0.87458074865408       1.20267890088048       0.11023929378588
C        -1.92519113101469      -1.24934399302713       1.18999583159522
C        -1.84774164879748       1.29536804612155      -1.22667975450602
C         1.84117840996481      -1.27616447057100      -1.29827990172505
C         1.94363983484656       1.11065147352681       1.17922449788004
H        -0.15888813934236      -0.34849106841207       2.05195220748116
H        -1.32227814639963       0.81762823212347       1.38879320815508
H        -0.14861202151775       0.34646378988804      -2.10301918257202
H        -1.38097251087830      -0.82634417598611      -1.43005351283942
H         1.30512465168279      -1.45293354086349       0.79806665876657
H         0.09930243061752      -2.10815515862353      -0.33339552543892
H         1.29092583312727       1.38679895014583      -0.91190782445310
H         0.18474770797615       2.02845968510639       0.33442011954845
H        -2.44201072860212      -1.24328558122252       2.16238433737512
H        -2.67883781350138      -1.06605126989122       0.41216219206864
H        -1.50494515802172      -2.25503655590341       1.05140386153405
H        -2.42974047653426       1.25886169533278      -2.16048272062348
H        -2.55881302246428       1.26130958107952      -0.38674562326400
H        -1.31507562856808       2.25709921077194      -1.23771727288701
H         2.35432343113988      -2.25152877382242      -1.28509073094325
H         1.39039264162669      -1.11738352115481      -2.28718352544795
H         2.58988871089364      -0.48237531000163      -1.18168672614771
H         2.47743173592833       2.07398783519672       1.17487439115383
H         1.54536056204475       0.96431902857351       2.19498043687174
H         2.69095854905946       0.33257287671253       0.96883983241134
Cl        1.39635881776791       1.55463781554022      -3.12912574649271
