40
C10H15F6N3O4S2 optimized with DFTB in AMS.
H        -0.93288991284122      -1.54178697300772      -5.56001893160726
H        -2.46258038571097      -1.24044887520317      -4.68655003657675
H        -1.92098034812557      -2.91475285595371      -5.00291172386279
C        -1.60002808337204      -1.90106106464556      -4.77540218202848
H         0.67898765850804      -3.19225052769173      -0.96321074412203
H        -0.89449424577242      -4.01538462572881      -3.09365297714704
H        -0.31584625898715       0.14896743906866      -3.33011983465919
N        -0.87025378357924      -1.91847864413922      -3.51761016643504
C        -0.28666822559854      -0.86007939404919      -2.95767691621138
N         0.36580696155995      -1.28050418427295      -1.87611016046906
C         0.21134091798856      -2.63375883866998      -1.75449868124403
C        -0.56589013614491      -3.03615772832237      -2.79453564213809
C         1.14577418927154      -0.44456033227155      -0.97125470046792
H         2.04641448970122      -0.99981153966395      -0.69860767014525
H         1.44039809049863       0.45551241481233      -1.51456571438277
C         0.31681822409774      -0.09306298093194       0.26532658872146
H         0.01142254865881      -1.01490277380801       0.77046240022227
H        -0.58964066421950       0.43661814588713      -0.04547469805626
C         1.13383146314256       0.78155369072842       1.22158931112187
H         2.03988989901803       0.24370864952679       1.51801332978767
H         1.44084002283990       1.69531770378627       0.70279481925571
C         0.32585301868740       1.14643621400651       2.46485056929620
H         0.02750223702209       0.24713097756667       3.00521378706163
H        -0.57220020444365       1.70077278445239       2.18909214391660
H         0.92771737533046       1.76711328937234       3.12818685361728
N         2.47592075501223      -2.12648508774144      -3.76875638118466
S         3.66559073542813      -1.05979901990557      -3.61840546206121
S         1.83707055618246      -2.37122646953709      -5.21513061247608
C         3.10522529425887       0.64233174531742      -4.19150807335256
C         3.10987572740818      -2.94483121819683      -6.47208890367231
O         3.83161215046753      -0.87259895122370      -2.19465951897335
O         4.82805795974267      -1.34355640193626      -4.41688692539498
O         1.25448491423881      -1.16981294253700      -5.79193868988552
O         0.94513835380161      -3.50471959725395      -5.06995005802109
F         3.85173425663269       1.55441269349125      -3.59073599757721
F         1.83293027073075       0.84820306730119      -3.81265967831063
F         3.19297167065300       0.80100333202534      -5.49258271631815
F         2.46048640125941      -3.57346981402062      -7.43997982354956
F         3.96147400682642      -3.78170820434505      -5.91167909055203
F         3.75763803662749      -1.92039477568536      -6.98486007631813
