35
C11H20N2O2 optimized with ADF in AMS.
N         0.25264295463842      -1.02372986115716       0.52879317473858
N        -1.29548667149442       0.46472193411948       0.70317151161004
C         1.55663357163215      -1.68146522488935       0.66745051804420
C         2.48781224474199      -1.31889672684642      -0.48753294294506
C         2.88120142559386       0.15582449984295      -0.49953488860581
C        -0.10549328892833       0.08533327334335       1.20083707923534
C        -0.71124457314759      -1.34412060691453      -0.41122668795122
C        -1.69000840363135      -0.40151964083109      -0.29995370021532
C        -1.96490991417683       1.72452457888097       1.05601248276852
C         3.77514547875360       0.50972542990877      -1.68404389739005
C        -1.66954937557573       2.80362433744434       0.02458446195419
H         1.97429787059376      -1.33937469509920       1.62630683079515
H         1.38169582967821      -2.76675768036851       0.72822544923497
H         2.00457615679015      -1.59319633067075      -1.44441433175151
H         3.38796816317049      -1.95413671651770      -0.40146634068724
H         1.98639817637752       0.79995841830332      -0.50413895556181
H         3.39754150196883       0.39827132200512       0.44708942907116
H         0.55822476314568       0.68528924889097       1.97040747961052
H        -0.62883506431223      -2.21037904190297      -1.05614812764324
H        -3.04128380263312       1.50989807261960       1.15310513580702
H        -1.57519586406783       2.01240524706659       2.04284652983056
H        -2.62701338405364      -0.28585897996064      -0.83064162620098
H         3.26870231609228       0.30050785229388      -2.64084572443112
H         4.71411890781083      -0.06737990409799      -1.66946708355127
H         4.03159685953827       1.57909219728579      -1.66781520235960
H        -0.58273880689490       2.98251768527405       0.00267722258005
H        -2.18052828513200       3.73428227803099       0.31152465985961
H        -2.02480729322281       2.50840370041240      -0.97469463920344
C         2.67779543327356       3.59147287062857       2.64969684023980
C         1.76818937249757       2.52962261562632       2.03385438460253
O         1.37725750965493       2.67754969302048       0.84665715706887
O         1.47340924172668       1.54519049085284       2.80952430409672
H         3.62398859302199       3.12803691487111       2.96796429952164
H         2.88060986695837       4.40108156399080       1.93723282250615
H         2.20378490971167       4.00007782404364       3.55535913902206
