36
C8H18F2N2O4S2 optimized with ADF in AMS.
N         0.14353627013050       0.27486841060234      -0.27762334164297
C         1.09608887933760      -0.63413783776763      -1.03609976740445
C         0.91679438416458       0.55699571179511       0.98771809209447
C         2.47207683496108      -0.01191342637876      -0.81411652092058
C         2.36330051904606       0.75679965272350       0.53028856901779
C        -1.16645441502759      -0.41706085518976       0.02512417975614
C        -0.06862983733147       1.55390575811745      -1.07851519280712
C        -1.97333569594598      -0.76369841861036      -1.20898770279463
C        -1.01764897422944       2.54967541966191      -0.45256626518636
H         0.79651847111238      -0.71263730319926      -2.08947691777265
H         1.01287296755146      -1.62155516826310      -0.55539129478550
H         0.81267850592551      -0.33799305536266       1.61990368242734
H         0.47037272224319       1.41390589979685       1.50686201853761
H         2.72144704617625       0.66383565077514      -1.64440884444693
H         3.24214359568125      -0.79559901002651      -0.78707386695032
H         3.05434681737076       0.37049969994018       1.29319392439169
H         2.59180112870931       1.82370552657593       0.39375251399563
H        -0.89231127917624      -1.32120286985817       0.59161643741001
H        -1.72011002517202       0.25014369106784       0.70242887300253
H         0.92611412632870       1.98829404351854      -1.23661470114248
H        -0.43822622390487       1.22582533229039      -2.05742678179400
H        -2.85389606871480      -1.33989958231420      -0.88693752504560
H        -2.32546487279083       0.12246762408540      -1.75286261740599
H        -1.40341282002790      -1.38131091610698      -1.91749966108629
H        -1.04247470806152       3.42325661155789      -1.12198452182856
H        -2.04705950700542       2.16933663323052      -0.40021436473234
H        -0.70070200601004       2.89639078857312       0.54287831437076
N        -1.16347554609437       0.90106678829727      -4.04805212598883
S         0.14443159763407       0.28903761451069      -4.73874509014831
S        -1.57277475985663       2.45859627452531      -4.18325649844607
F         1.40252124068411       1.09318788239310      -3.95341198562678
F        -1.94295523263136       2.64035428670788      -5.76611834421737
O         0.28683722793597      -1.06967954200105      -4.22902256552976
O         0.35652427720262       0.59381434848400      -6.13560846649147
O        -0.48939728161164       3.39529833523409      -3.93912501823351
O        -2.82738308420327       2.60711230021399      -3.46851412297506
