32
C8H16F3NO3S optimized with ForceField in AMS.
N         0.16647813597293       0.29749132528663      -0.07151704790359
C        -0.43517147322085      -1.00728246600856      -0.46138348592018
C        -0.93228713328850       1.06844487758448       0.58552353179059
C        -1.94178510151107      -0.85434033494121      -0.41371851575627
C        -2.16039719085939       0.17493608459227       0.66281391692288
C         1.29456294400178       0.11499111524729       0.89301020138975
C         0.62841746214467       1.03255663258877      -1.27696344092309
C         2.47160856997772      -0.72049261359649       0.35682225294128
H        -0.16822390129075      -1.81440879854810       0.25922369708886
H        -0.11217492805475      -1.35235195621462      -1.47043752140957
H        -1.21045913672433       1.98575713696941       0.01491783411036
H        -0.66966091797268       1.42286979030036       1.60917115476820
H        -2.44690928702210      -1.81513816211055      -0.17116620198812
H        -2.31520330960073      -0.46969984246008      -1.38837890113759
H        -3.10089915066928       0.74478520909739       0.49786216564318
H        -2.19895755661140      -0.32536223695687       1.65627891843373
H         1.69569053425892       1.10688209664684       1.20295021509291
H         0.92339419544368      -0.38012572792584       1.81979441644072
H         1.37727397247886       0.44742520771745      -1.84941233965883
H        -0.21858675779598       1.23433837447834      -1.97095414164201
H         1.08597057639739       2.00675896306742      -0.99441789813303
H         3.18632317298278      -0.90842018307560       1.18561546563233
H         2.13741851915644      -1.70402303191850      -0.03095997290219
H         3.02189635818308      -0.17654005846435      -0.43733825052883
S         2.72924467595095       1.61199877919049      -4.96314708379094
O         1.76320977165241       0.51200506526249      -4.49967182033258
O         1.96639196665824       2.28477667960406      -6.11384425221173
O         3.83180822033534       0.82623052831654      -5.68819038347467
C         3.31181345350349       2.73611322072854      -3.66555505259169
F         3.96320232625838       2.01148986668962      -2.68604342697155
F         2.23351544275059       3.39739490151743      -3.11066163391147
F         4.18325745651413       3.65724654863496      -4.21412360336685
