45
C11H24F2N2O4S2 optimized with ForceField in AMS.
N        -0.58098101498876       0.10026950729240      -0.10408115666747
C        -1.59045070054777       0.55662669649020      -1.11438605100480
C        -0.91666478491536      -1.29929943191242       0.31839330111483
C         0.74741482358211       0.08249283870361      -0.80792726818984
C        -0.55490264517618       0.99691882075298       1.10395186443256
C        -3.04897539513756       0.44949639134762      -0.63932606784766
C        -2.36646809419349      -1.47755324533201       0.81136537528876
C        -3.36889681594653      -0.98303522395269      -0.22620191748799
C         1.96764282458139      -0.29540560598169       0.06652976104972
C        -0.12473469538077       2.45332537782806       0.84771768627378
C         3.24593605665999      -0.32772784079206      -0.77943820593492
C         4.45684701552983      -0.69300169249727       0.07090244731675
H        -1.50932075713240      -0.05975324786113      -2.04071601697899
H        -1.39639011417429       1.59945557042045      -1.44190606158732
H        -0.25489187541006      -1.63624345860312       1.14521522598113
H        -0.76191650768470      -2.00969611574753      -0.52658318293603
H         0.95032713370856       1.06981061953971      -1.27972338336396
H         0.71415143022515      -0.63728843528981      -1.65890323966435
H        -1.54775280801034       1.04473022333842       1.59106845779202
H         0.11333438935305       0.57662148820274       1.88646718653070
H        -3.72191509630170       0.73908558854716      -1.47491786412127
H        -3.25405233177547       1.15123980712509       0.19506551522898
H        -2.52439587992557      -0.95226671226347       1.77631996192991
H        -2.55149709582946      -2.55706046066324       1.00052929207742
H        -4.39545761719995      -1.02823646537141       0.19681098596481
H        -3.33482775905765      -1.64481229881298      -1.11995926226429
H         1.82941157082591      -1.29816471917273       0.51870945027783
H         2.11111171456232       0.44779829232007       0.87737447786700
H        -0.12005509946689       2.99818378994037       1.81522975334784
H         0.90090048619306       2.52033749685379       0.43495677101780
H        -0.83784338985328       2.98014970435020       0.18373179150870
H         3.41835066823100       0.67024089677750      -1.23827421007076
H         3.14087349077036      -1.07761886710867      -1.59355025164764
H         4.32832870996959      -1.70355964990650       0.51426356519126
H         4.58971286355138       0.05073708631970       0.88522776555673
H         5.36884634536131      -0.69602993933166      -0.56246135331858
N         8.29427226978977      -0.59103677300794       3.99935210219246
S         8.32669176850253      -1.08791528393194       2.44108031502846
S         9.65954953334907      -0.52816993603712       4.89771781405177
F         8.44615546269399      -2.75671200166761       2.39546564286726
F        10.61094475431779       0.74242348437374       4.36646617448331
O         7.06169786960054      -0.66232939959426       1.75560297266368
O         9.51124317738626      -0.49250264552530       1.73285736629187
O        10.42975033028561      -1.81006307839570       4.74716188999749
O         9.30269740947759      -0.31682982816356       6.34150723196103
