36
C10H23NO2 optimized with ADF in AMS.
N         0.01209782788080       0.26204692772853       0.33235714031137
C        -0.84129912931391       0.42115574427779       1.59689254187922
C        -0.83806621068379      -0.05420648119361      -0.87589197490274
C         0.99901930667051      -0.87388413537146       0.57852059050589
C         0.75312916475398       1.56709814792182       0.08895894712642
C        -1.84616075950285      -0.68570605152723       1.83642294810420
C        -1.93673094438398       0.94924475189091      -1.17613929031525
C         1.94417668692268      -1.16448186870003      -0.56821173793651
C         1.83833992326462       1.88850145942034       1.09879162522205
H        -0.10148976600809       0.41813858715070       2.42833540557555
H        -1.32745265314780       1.40352243741331       1.50284719435913
H        -0.14965339664619      -0.12935072369962      -1.72860917832729
H        -1.25841004034355      -1.05284925347465      -0.69282107007221
H         1.51248992035277      -0.60055534694202       1.51722627762710
H         0.39648557906934      -1.75166684760537       0.84455538631005
H         1.16417459989248       1.50530326070837      -0.93049018265937
H        -0.01802204046624       2.34994719588821       0.09248432566263
H        -2.38417355779408      -0.41656923595829       2.75930285282076
H        -2.59615011963082      -0.79990025500880       1.03930781533126
H        -1.32940142801265      -1.63123909921800       2.06230473168868
H        -2.49621165416686       0.58454128370957      -2.05065911380758
H        -2.64808577223214       1.05159782541930      -0.34558352496148
H        -1.54318794862418       1.94280033463935      -1.43154429105730
H         2.63880863087965      -1.94062142445780      -0.21152559935915
H         1.44582241972244      -1.56551648659689      -1.46340682678182
H         2.55356472836751      -0.29650533371008      -0.86147110202456
H         2.15671201821009       2.92788984988353       0.92552641880918
H         1.50087816513781       1.78050040496606       2.13877327916370
H         2.71693929395878       1.24009240034694       0.98238751090783
C         1.60486179611783      -1.58079266848408       5.36995594622160
C         1.11033375989650      -1.24822414416695       3.95564909983461
O         0.45645138862844      -2.13059144589684       3.33431997722498
O         1.40954370176106      -0.07492137255014       3.53183196897332
H         1.11897584119601      -0.90596997329634       6.09193593104468
H         1.38238359871416      -2.62277437440290       5.63714983757171
H         2.68740141215965      -1.39548586670365       5.44056212662934
