46
C14H29NO2 optimized with DFTB in AMS.
N        -1.48318368148533      -0.45425188457547      -0.29627735330655
C        -1.56862824990061       0.60030567028704       0.77115987031012
C        -2.44542499486392      -1.56857808526032       0.00791372197893
C        -0.11280838346712      -1.07811566700693      -0.26177300611723
C        -2.98863048808907       1.09048071082466       1.01431880158860
C        -3.87369909125754      -1.09063989276279       0.22497978386305
C        -3.90711222359843      -0.07619075632887       1.36498604284847
C        -1.74715514864190       0.11548410780279      -1.64070598358214
C         1.04264497992748      -0.14272708465685      -0.61205218762546
C         2.32753244848223      -0.71020300378387       0.00500266483310
C         3.53139682844543       0.18408536521145      -0.29989424468619
C         4.80704296618752      -0.37617598321180       0.33694930685923
C         6.01411862009145       0.51356912515190       0.04480437622889
H        -0.93200256133694       1.43258607994836       0.46654476946466
H        -1.15834459097855       0.14549786678443       1.67861912884070
H        -2.08388985447048      -2.03053235928441       0.93551907771719
H        -2.38642354910448      -2.28356374320555      -0.81619398258639
H         0.02160989711020      -1.43204868902066       0.76668772099419
H        -0.13086989148231      -1.93162434204391      -0.94453678058755
H        -2.94578603215603       1.79507676975549       1.84892213422360
H        -3.37164786970950       1.62990936286641       0.14082550027652
H        -4.29610083004036      -0.66001622042738      -0.68925477659965
H        -4.47051354208404      -1.96805555192078       0.48732109382975
H        -3.54807003588726      -0.55484101708175       2.28153964603470
H        -4.92718968834781       0.28086113230619       1.52462605497181
H        -1.05196541366588       0.93170569997759      -1.82501460174181
H        -1.60855188021858      -0.66512737675062      -2.38712977185192
H        -2.76642878202939       0.49073470537684      -1.68760548669215
H         1.15110967766909      -0.04776052605387      -1.69770793316417
H         0.87525632263923       0.85568715650113      -0.20145115924810
H         2.18640203035489      -0.78755456283395       1.08827834884951
H         2.50721578978066      -1.71760464524060      -0.38541096563878
H         3.34331621258570       1.19168763282111       0.08682233195187
H         3.66695962034476       0.26325569759180      -1.38487751866381
H         4.99515663316282      -1.38339499105885      -0.05022187365324
H         4.66661269575743      -0.45511085573372       1.41975700824143
H         6.18294192868785       0.58976310318177      -1.03056262061231
H         5.85461265858886       1.51695605995494       0.44230363070949
H         6.90825926887145       0.09521497031928       0.50762924259896
C        -0.11051394443278      -2.08387234097160       4.66726068635352
C        -0.49947793888647      -1.52483085515836       3.28156695388246
O         0.38900945550657      -0.90212258399081       2.65725218873178
O        -1.66564119784009      -1.74019207184202       2.88408872533410
H         0.55270115071665      -2.93605211537422       4.52191585566824
H         0.42362507257527      -1.32065446471154       5.23068132181656
H        -0.99720214131064      -2.40250945607163       5.21143973425600
