40
C10H15F6N3O4S2 optimized with DFTB in AMS.
N         1.66886986824193      -1.02981453882959       0.83246476264118
N         2.62357352888962      -1.38302751340347      -1.06287613057066
C         1.41499014642242      -0.54567988932139       2.18594697192382
C         0.77021884129745       0.84311830704397       2.14774047431417
C         2.77730336032724      -0.80913093748642       0.12894456732824
C         0.78458470563970      -1.74300219900734       0.07006174944314
C         3.63390489769439      -1.41027748812986      -2.11952664054480
C         1.38974394003190      -1.97292032459388      -1.12491527284141
C         1.70475147833412       1.90162489543512       1.56782861172642
C         3.09324423569039      -0.79539375981442      -3.40299806133897
H         2.36886956800162      -0.51329481434113       2.71705990155978
H         0.75056997114159      -1.26234567536002       2.67438373188462
H        -0.15564683875550       0.79736026438616       1.56528583882990
H         0.51172274770414       1.10775292597067       3.17657438840853
H         3.68002039564900      -0.31490602709961       0.48051257884766
H        -0.18393193681404      -2.03474670036783       0.43689729703690
H         4.50122533826235      -0.85005636686536      -1.76379545575990
H         3.92703006701208      -2.45292895659278      -2.27556581460235
H         1.04823131390783      -2.50646409014703      -1.99427427695387
H         1.93642365633200       1.68204949369825       0.52463424494098
H         2.63558956696480       1.93593964699603       2.13323837652546
H         1.22696962345455       2.87940320014466       1.61708624149578
H         2.27235785338712      -1.38551876177437      -3.80878411395641
H         3.89628684753858      -0.76050323274063      -4.13745582426231
H         2.74146040519353       0.21904333177613      -3.21751504163979
N         5.49645071059871       0.03407916022272       1.08411888046610
S         6.63764312319361      -0.75894230155081       0.27552065442750
S         5.41904624376289      -0.24585858303669       2.67109373069330
C         6.11097061739849      -2.56728096490442       0.20380826420277
C         6.84374335608942       0.65638947912348       3.49642847709533
O         6.50082494043772      -0.34060035189223      -1.10078997280327
O         7.94110916815815      -0.75610333151366       0.87882344945136
O         5.54939315822434      -1.63383364113114       3.04242136217627
O         4.23346511573951       0.45944366490332       3.11979302089544
F         6.29159048163246      -3.01261393314067      -1.03598639515363
F         4.80019058847455      -2.66184530174802       0.46260061253589
F         6.77197015701248      -3.33368560313430       1.03773014155336
F         6.40561573572727       1.18615443952723       4.62694418939192
F         7.27750331200148       1.62521554799816       2.71067118965916
F         7.82707462680003      -0.17517587879886       3.76223134597247
