40
C10H19F2N3O4S2 optimized with ForceField in AMS.
N         1.90144142493339      -0.93862296074025      -0.22333125046107
N         3.13845605673498       0.90634093020825      -0.12419232370875
C        -0.38171958699303      -1.86879702553001      -0.04289043243683
C        -1.04733656079437      -0.51246146754061      -0.31311205428485
C         0.98916249752810      -1.96761070971195      -0.72128853377276
C        -2.45975778744765      -0.46074757569727       0.27531521990576
C        -3.09628827504994       0.91384632129186       0.04184115341674
C         2.36319485102887       0.12881939362069      -0.90460024074411
C         2.40619439743815      -0.83474951303813       1.02303862661395
C        -4.50853917428037       0.97191355512487       0.61401805206194
C         3.17396093709383       0.31095832667621       1.08401329838665
C         3.77325691943077       2.16633822716698      -0.49031907293017
H        -0.26834176274905      -2.02304392001795       1.05213101076311
H        -1.02770839609205      -2.68305618108338      -0.43826525485592
H        -1.10006230661488      -0.33725177919932      -1.41033311376228
H        -0.43505360287398       0.29548165873239       0.14362751832361
H         0.85411243797990      -1.85746749428886      -1.81809165857078
H         1.42694430810942      -2.97139463881253      -0.53234642707204
H        -3.08630024737990      -1.24487730248933      -0.20395278140298
H        -2.41117695310772      -0.66373367999388       1.36779291309401
H        -2.47894697216214       1.70014215056065       0.52862627346915
H        -3.14093766986327       1.12722993292952      -1.04842927067273
H         2.11802698572373       0.34833913007707      -1.93651024370605
H         2.21460420007618      -1.52859031439104       1.83122438829788
H         3.70416382718573       0.68947794712129       1.94836223507769
H        -4.48905649490142       0.78311257293865       1.70839807597693
H        -4.94004292431149       1.97897347013308       0.43436955761093
H        -5.15499364789595       0.21476406873955       0.12161822680468
H         4.87262615767096       2.08271695937105      -0.36291819771918
H         3.55175660138186       2.42144980706447      -1.54856686305789
H         3.39078934604831       2.98028355096210       0.16087381296447
N         2.41819867085861      -2.90672136596270      -6.46104309747095
S         3.22676727102583      -3.05002879647862      -5.04580472057505
S         2.05122403883472      -1.43913629640240      -7.08503226233871
F         2.19815699908267      -2.66087408684312      -3.78659541314869
F         3.43908255713783      -0.74944790734757      -7.71901933836483
O         3.70534849409496      -4.46370209435627      -4.87905299200435
O         4.39922066087309      -2.11025670030893      -5.02469498780112
O         1.50894100165770      -0.54236423280288      -6.00772918020925
O         1.03001397348763      -1.59728740338166      -8.17489420389619
