24
C6H12F3NO2 optimized with ForceField in AMS.
N        -0.00113617232101      -0.00230211193312      -0.00128096760562
C        -0.91369126352790      -1.11480324220178       0.34306805626145
C         0.65171464832475       0.49855909620722       1.22840572184227
C        -0.77244506318070       1.09178283060627      -0.63113613324988
C         1.03044322800465      -0.48430767437602      -0.94600062980852
H        -0.35786919499848      -1.95426400560859       0.81820789633837
H        -1.70094126698518      -0.77921921246460       1.05506985873502
H        -1.42042797449098      -1.51111803575808      -0.56547222779170
H         1.34443990453186       1.33914187835123       0.99847705801363
H        -0.10292959652778       0.86725653805891       1.95912737708322
H         1.24152600811528      -0.30588141843542       1.72282920548055
H        -0.10564226929226       1.93651340913058      -0.91295468452615
H        -1.28423935181997       0.73934302953329      -1.55469796327325
H        -1.54943299329061       1.48408462918975       0.06292632173799
H         1.73283053431007       0.33442660142330      -1.22139297390262
H         1.62705612580190      -1.31055439001940      -0.49810541144917
H         0.56603243148598      -0.86596720573923      -1.88300018768939
C        -0.58599631732524       5.08550086715958      -1.58365520273427
O        -1.73841168010048       5.48689446254488      -1.61099838063230
O        -0.12053154279528       4.66054939245268      -0.53860492145022
C         0.26097123570519       5.11695914975762      -2.82192383387195
F         1.35686724327538       5.93273861264324      -2.60963266123951
F        -0.46332098631294       5.60546834923212      -3.89593311149288
F         0.69630570241374       3.83824835354557      -3.11705772197507
