42
C12H16F6N2O4S2 optimized with ForceField in AMS.
N         1.74118198684462      -0.02544145585128      -0.52205289985646
C        -0.63447406553354      -0.01173711729619       0.09683003684328
C        -2.07625002254464      -0.02715662336753      -0.42071501229622
C         0.37408206456617      -0.06225670279432      -1.05475690565150
C        -3.07235862688503       0.02971500156900       0.74317567586865
C        -4.51196044421008       0.02883232650580       0.23906001619796
C         2.37137554590499      -1.19326734450584      -0.18998053250257
C         2.35615128753113       1.17866505583891      -0.31176517679619
C         3.65034379949464      -1.17349200050072       0.37092838340355
C         3.63552505843606       1.23360448350211       0.24715116408929
C         4.28310280937199       0.04842196009913       0.59203416124635
H        -0.47033747453305      -0.88813183546991       0.76184208189726
H        -0.46403668190497       0.91511397441405       0.68762205996309
H        -2.24734247887359      -0.95627660297657      -1.00807598113527
H        -2.23736949578252       0.84881769000104      -1.08723418806990
H         0.21829411264041      -0.98859560041759      -1.65220970027629
H         0.20630641180729       0.79683550926062      -1.74246027579431
H        -2.90130052463531       0.95319907830974       1.33855695465666
H        -2.92323428833708      -0.84955179609385       1.40738962907323
H        -4.69439223060884       0.91317206999325      -0.40796522003768
H        -5.20747202504269       0.07184862252419       1.10356044234778
H        -4.71809245035300      -0.89790096693418      -0.33758962176140
H         1.88062598971787      -2.14614128767755      -0.34692175723366
H         1.85304994289001       2.10459557669257      -0.56411305475176
H         4.14318964410428      -2.09729317190587       0.63765675431772
H         4.11667420916522       2.18792513650029       0.41792177794634
H         5.27139459726487       0.07672474890572       1.03286735917284
N         3.48403170673633      -6.69115886235675       1.61956020623037
S         4.51664961473872      -5.61161606667352       2.29407917601780
S         2.41661664028049      -6.28291540036825       0.44393904623431
C         3.75593948368005      -4.89201293536716       3.73516343343310
C         3.09100519763139      -6.73485465982608      -1.14089513845075
O         5.77165387392662      -6.32319876599581       2.71272349131350
O         4.86097945319710      -4.52735300102808       1.31237100422104
O         2.13706143904089      -4.80611423998975       0.46685521522008
O         1.13602926575004      -7.03893159578190       0.65701074791180
F         4.62750575054222      -3.99251778897779       4.31886074558098
F         3.45292188407463      -5.88943409113903       4.64235309744163
F         2.59556911525454      -4.23516457596356       3.37320975750739
F         2.20054465505844      -6.38787152402954      -2.13900671017247
F         3.31062347335829      -8.09868488136322      -1.17756690694796
F         4.28676245973503      -6.07303424016459      -1.34374292430162
