35
C9H18F3NO3S optimized with ADF in AMS.
N        -0.41405614645079       0.23281224057771      -0.13561777100531
C         0.08367246079975      -0.08399626954272      -1.53938520638747
C         0.86515649215825       0.24582935892332       0.66617878786329
C         1.39958936921684       0.68811936279734      -1.67243894522279
C         1.87390286634766       0.96897608167014      -0.22064351017170
C        -1.35093160940428      -0.83054460181124       0.38537577292693
C        -1.07763885047679       1.60336644934753      -0.16407023664478
C        -2.67031617863696      -0.91588546549616      -0.35497743765468
C        -1.55811830691966       2.10642907596578       1.17725623308498
H        -0.69184677425204       0.21973970383538      -2.25969845413685
H         0.23704220821016      -1.17410600147192      -1.56624125739718
H         1.14217334607786      -0.81030650529554       0.81300801615936
H         0.68185291689640       0.70450955777845       1.64583052022573
H         1.22439752843987       1.61853506768399      -2.23241143627840
H         2.13049666676105       0.08839968713471      -2.23327131309601
H         2.88913712104516       0.59598971264108      -0.02229172024512
H         1.87739445812415       2.04830424189873      -0.00848668855819
H        -0.78965133782815      -1.77488296709008       0.30677006742975
H        -1.49995967345611      -0.61775910941309       1.45478988693309
H        -0.35495685156021       2.28749370565094      -0.62660494100395
H        -1.89238660016613       1.51101195169477      -0.89637736787220
H        -3.21238151351875      -1.80015194306989       0.01324510044396
H        -3.30355404749091      -0.03567770727094      -0.18428210445963
H        -2.53413985565139      -1.01755523705598      -1.43981571132389
H        -2.02709642760250       3.08638323163120       0.99877051648554
H        -2.32523403425428       1.46050761633810       1.62818287329129
H        -0.74782776170438       2.26265799261508       1.90427205615249
S        -1.97751483380600       2.43326742832362      -3.57324314639386
O        -0.66571765458671       2.86092873413355      -3.03767613807384
O        -2.50292406031458       1.20299048395073      -2.91530205230007
O        -2.15526226720488       2.50343697696863      -5.02086693102558
C        -3.14299434475158       3.75033444170480      -2.91006091427666
F        -2.79347182433061       4.98842965277802      -3.34086187330178
F        -3.12379962784509       3.77767544531132      -1.53349403675790
F        -4.42618363256440       3.51874380326264      -3.28754628820856
