32
C10H14F3NO3S optimized with DFTB in AMS.
N         1.95237602546805       0.24490499066263      -0.22226308176845
C        -0.49023089332478       0.28517573311592      -0.00093354358626
C         0.84466401005217       0.63220490833347       0.65726091418389
C        -1.65459562442496       0.69827980041075       0.90508559494020
C        -2.99927529371289       0.35174140043169       0.26952310807831
C         2.45037860647197       1.14837429774056      -1.07884929389886
C         2.54464514608357      -0.94444585178500      -0.04354621118786
C         3.54589429517175       0.84151668203221      -1.86013365209754
C         3.64215172536842      -1.29957486614127      -0.80128834814471
C         4.15617103013993      -0.39712813399735      -1.72189069862411
H        -0.53042209631008      -0.79202703738495      -0.19308845234706
H        -0.56458011839378       0.80186902241344      -0.96339717434372
H         0.97370440823584       0.10177839084492       1.60318460499266
H         0.93219849599501       1.70500432523998       0.84276818647971
H        -1.56196387452245       0.18714031154105       1.86855142676196
H        -1.60352924344563       1.77581444837292       1.09042082864540
H        -3.81022597796952       0.65916644073900       0.92929974714456
H        -3.11458579920886       0.86455486215249      -0.68621561199752
H        -3.07691149003110      -0.72286529120998       0.09962802783541
H         1.95820079609236       2.11073013403847      -1.11994477747850
H         2.12668041225058      -1.59434436788422       0.71345023045252
H         3.93772124477169       1.58647704042838      -2.54014076790486
H         4.11041491834935      -2.26123018709513      -0.63744893357039
H         5.03391557992677      -0.64609061602649      -2.30554508012973
S         3.82052878113540       1.48254261565503       2.10962784749421
O         3.78313343103876       2.12296506349922       3.39567641328395
O         3.28507476978463       2.27680326163805       1.00432123053890
O         3.36975588989897       0.09130396596740       2.09415332463609
C         5.61413631315342       1.33077967942476       1.66829572669444
F         6.27155474441818       0.56864384770980       2.53156222634262
F         6.21165655222624       2.51250719650639       1.60628991891421
F         5.71726346071106       0.75712234332588       0.45779623916054
