26
C4H12F2N2O4S2 optimized with ForceField in AMS.
N        -0.00650214617792       0.00592459144826      -0.00728949820498
C        -0.91970786938348      -1.10906997630866       0.32815580334937
C         0.63066142197615       0.50880641648727       1.22936080899617
C        -0.77386414859733       1.09892726337668      -0.64416903378674
C         1.03647034250938      -0.47452693631904      -0.94094920640117
H        -0.36532891492622      -1.94948499130123       0.80330671846161
H        -1.71068170076937      -0.77708856395085       1.03750766893050
H        -1.42081533406465      -1.50298619574981      -0.58431138081196
H         1.33925752461712       1.33704800282688       1.00513773317603
H        -0.13093493266939       0.89458323661924       1.94325961021038
H         1.19507066906622      -0.30018168882962       1.74160917208294
H        -0.10844390894392       1.95098733013178      -0.90946199381007
H        -1.26955061902696       0.74782119422560      -1.57680656878287
H        -1.56403217665350       1.48237146131864       0.03978872014601
H         1.73815508355306       0.34578227411781      -1.21254833054792
H         1.63258594227263      -1.29685145061302      -0.48525577119968
H         0.58219108964766      -0.86075746163562      -1.88106602236452
N         5.80004474803507       0.40217893872441       2.65647589952578
S         6.84141783828127      -0.58454033117036       3.44309063489161
S         4.73241097775423      -0.18792561870717       1.56663691158763
F         8.07887351413897      -1.01802578472030       2.40225156787143
F         3.55562817736647      -1.06299646545005       2.37282825617353
O         7.41690650396100       0.13452209175486       4.63011808280393
O         6.12962993400507      -1.82761086518332       3.89867103423273
O         5.43681404800621      -1.09877849660162       0.60090315802378
O         4.09585406382222       0.94875930530920       0.81847317614650
