43
C11H17F6N3O4S2 optimized with DFTB in AMS.
N        -0.11309101956121      -1.03567302558874       0.75398494803399
N        -1.97150963502098      -0.01205821313848       0.39875973801273
C         1.13702475316177      -1.45966220192317       1.38142736366887
C         2.33861699218998      -0.81496999294738       0.68599352900799
C         2.30772867652629       0.71384863738406       0.77085484216432
C        -0.97487050484658      -0.16254857653731       1.26849073111834
C        -0.56066282297898      -1.44082957707562      -0.47478946446115
C        -1.73426233393494      -0.79299880036015      -0.70005335199667
C        -3.10645410644284       0.89323525132576       0.57153251121621
C         3.54307606252012       1.32886036497367       0.11805338202304
C        -2.88591821861378       2.16977162068814      -0.23124205814014
H         1.09264837204669      -1.16952868029341       2.43355313858323
H         1.19353043190941      -2.54913124987598       1.30824298030714
H         2.36624025077032      -1.13336170244052      -0.36141314128662
H         3.23853029881153      -1.19499871493097       1.17814859923550
H         1.40900790375026       1.08535154204717       0.26952580703821
H         2.26020060320433       1.02033679540817       1.81925138904343
H        -0.89866579761297       0.34397751808673       2.22803103232796
H        -0.02056780851031      -2.15081447346855      -1.07629824032077
H        -4.00733111546710       0.37036690363880       0.23932671868742
H        -3.19055232160486       1.12420757019407       1.63583455083941
H        -2.41206839774826      -0.83068825445063      -1.53481688063862
H         3.59901911090496       1.05621480931002      -0.93712341706930
H         4.45028547367756       0.98406367451754       0.61554084628377
H         3.49575159423831       2.41458158323861       0.19609187522692
H        -1.97718328835484       2.66808834205555       0.10071721852445
H        -3.72981240504070       2.83745680726689      -0.06702129301838
H        -2.80375966611108       1.94725076954056      -1.29466621235544
N        -1.00502063614100       1.47200442665842       3.76790545472045
S        -1.41647472977422       3.01008744310265       3.54741003178362
S         0.44361243575132       1.15715242821678       4.39522656283121
C        -0.29947420126535       3.71250478026405       2.20829186058065
C         0.40508850401987       1.52946985229739       6.23306314311247
O        -2.70108839231573       2.96581459939527       2.88564560031590
O        -1.25033382447935       3.86180496297806       4.69234263508744
O         1.52005121296303       1.95307928297107       3.85054531732556
O         0.57723072687955      -0.28353596441281       4.31383260536402
F        -0.99832225772658       4.56343044657517       1.46949652465587
F         0.08143283611815       2.70663211386868       1.40740943777448
F         0.76468231392233       4.32218397518602       2.67282997130163
F         1.22648123526655       0.69321789810294       6.84579313454163
F        -0.81784633618114       1.35028791761918       6.69924621415564
F         0.79285978660050       2.76432105333224       6.46487456539364
