35
C9H18F3NO3S optimized with ADF in AMS.
N         0.41216825782555       0.20545219977851      -0.54750940735054
C        -0.29215449087062       0.31986816102936      -1.89056758854381
C        -0.58510933094090      -0.56292885301628       0.28299284522361
C        -1.76388794960007       0.55098874018807      -1.54209256215791
C        -1.94053727203802       0.03776918759897      -0.08671615825722
C         1.73132647108824      -0.51713087587558      -0.71503879289493
C         0.63570490894156       1.58252243120623       0.01244910811727
C         2.51861613472840      -0.71768502449095       0.56860691377562
C         3.87689664791140      -1.33264566727707       0.22222400474190
H        -0.13541040753505      -0.64453406926575      -2.39518518579130
H         0.19163746420482       1.12853366258892      -2.46597767245216
H        -0.31991394350956      -0.49059541009587       1.34504349900126
H        -0.50740511217040      -1.61160941302459      -0.04254245582613
H        -2.40496405207477       0.00767452456133      -2.24995946387172
H        -2.02545456759471       1.61577413887797      -1.62226999708761
H        -2.19905211677367       0.86185700550569       0.59423574828632
H        -2.73231520111481      -0.71864990412703       0.00340840191552
H         2.31152424072554       0.10132307057992      -1.42072776247259
H         1.48614490256085      -1.48409342239862      -1.18223984079188
H         1.43060920159158       2.05680189659414      -0.57971006393896
H        -0.29263219328479       2.15745691457403      -0.07890768499105
H         0.91955687973967       1.49170106691233       1.06710638161986
H         2.69147265886255       0.25100915360563       1.06364789393522
H         1.97436142471965      -1.36805647467257       1.27563002353526
H         4.47471773331461      -1.49575334113779       1.12983983796536
H         3.75822463174566      -2.30192726319061      -0.28669003497567
H         4.43575661308583      -0.65987738172246      -0.44594771842342
S         2.67826581775116       2.50485779189952      -3.17705635223899
O         3.44961022404642       3.62215111874047      -3.71037657586977
O         1.21279417353372       2.70804359348539      -3.06113970460279
O         3.25890165972322       1.80517622350970      -2.00090808288368
C         2.79786830375399       1.19240803279181      -4.52175884024401
F         4.08623452091010       0.85975592660844      -4.78528332172866
F         2.22377473350391       1.60769237868848      -5.67776954106459
F         2.14987485143894       0.03578660157024      -4.13880619115782
