36
C10H17F3N2O3S optimized with ADF in AMS.
N         1.86322120960136       0.59183676214754       0.04167078318751
N        -0.23086939163742       0.86298994495776      -0.47054556120433
C         3.11239929871851       0.01771206724286       0.55931037722653
C        -1.69012674944991       0.70266635390246      -0.48486937202174
C         0.64477115647128       0.05122807996435       0.14014134135161
C         4.03027750866545      -0.44188249689275      -0.56728422826614
C        -2.35068303796633       1.28920994754598       0.76200906519861
C         1.76365668982159       1.79533550296154      -0.61753927131432
C         0.45039844244598       1.96573362908079      -0.94046291363028
C         3.43394805005001      -1.55978865159856      -1.41749521775093
C        -2.08769501586413       0.47410572938595       2.02257804922976
H         2.82833535833744      -0.82001215267125       1.21183470409269
H         3.55193536410664       0.80296759404463       1.19320655667062
H        -1.90010497862432      -0.37466107910579      -0.58124464420686
H        -2.04456255892994       1.19328643328064      -1.40397203720731
H         0.40352714962428      -0.87657669089000       0.64032966852812
H         4.29687250554321       0.42163120596085      -1.20123821520180
H         4.96899816009773      -0.77472877925743      -0.09340224018839
H        -1.98601587624797       2.31953371502343       0.90781715199690
H        -3.43349332516516       1.34213947202810       0.55328146505741
H         2.61839978422479       2.44657858218536      -0.74237009791845
H        -0.06463545410260       2.78774101582233      -1.42050288098837
H         2.50483006712066      -1.23399009836155      -1.91138816323201
H         3.20078729394336      -2.44295476644180      -0.80072893196901
H         4.13342603549681      -1.87706171183840      -2.20490551270091
H        -1.01902896159372       0.48488874758196       2.27517569961402
H        -2.44098360912333      -0.56434177243714       1.90929284554643
H        -2.60877049517461       0.92031124004797       2.88210096888428
S         1.52544709307687       2.68478458743282       2.87677450647451
O         2.79890273541719       2.51738656000486       2.13998894194939
O         0.31907250838867       2.46461287945336       2.04991485531259
O         1.47321786246864       3.80080776041643       3.81821784077514
C         1.49925042097259       1.18075145201799       4.00661848525456
F         2.62706606353806       1.08112592631250       4.75379674976519
F         1.39752457456570       0.00231039603973       3.28222488790276
F         0.43483869218259       1.20958342225247       4.84857871168218
