41
C11H22F3NO3S optimized with DFTB in AMS.
N         0.33413616550425       0.09847284275629       0.43555417866536
C         0.12057592038451       1.25848239841314      -0.49750719301320
C        -0.41575281341079      -1.09144217288069      -0.08240311740769
C         1.81127170078081      -0.21329202320867       0.41026631780111
C        -1.34600293123951       1.57366860753248      -0.75153199224876
C        -1.89713168975778      -0.81821759038023      -0.31888176464657
C        -0.12197169223172       0.42884913016168       1.83030106611430
C        -2.08677159873027       0.34964164100116      -1.28451101685023
C         2.25101306760837      -1.38333254590768       1.28508395238970
C         0.70132692286329       1.50197624635187       2.52837491640875
C         3.77334877742382      -1.51108464004834       1.19645214116888
H         0.62179616511659       1.00632098565415      -1.43420389742924
H         0.63070829367418       2.12215606210998      -0.07263845661703
H        -0.29441938337118      -1.90309780146715       0.63719196706385
H         0.06305426604954      -1.37777262875085      -1.02286590021786
H         2.32629504915212       0.69640972699497       0.71371990110151
H         2.07767745616907      -0.40966154667656      -0.63005431109236
H        -1.37816717592892       2.37863951771094      -1.48989390418902
H        -1.83092878892217       1.93983956089875       0.15786694539645
H        -2.40609461472088      -0.61316206507657       0.62697258947089
H        -2.33345178047410      -1.72783970732241      -0.74000459707019
H        -1.16246005166389       0.75141180126194       1.76424010965163
H        -0.09060780991718      -0.49932160796130       2.40594421279452
H        -3.15087456909701       0.57245193704176      -1.39128010092989
H        -1.69294643379338       0.07938179022101      -2.26924154122403
H         1.96236404556393      -1.22275740022632       2.32754516056878
H         1.79093040819677      -2.31604140919143       0.94467718401027
H         0.21487889586325       1.72310294967290       3.47857006661666
H         1.71493604917223       1.16569752758989       2.73387251950046
H         0.74935437383004       2.42036952555032       1.94720782935777
H         4.10638585131043      -2.35766774115184       1.79617034470362
H         4.07800930769788      -1.66516303517785       0.16222673021846
H         4.25279250500440      -0.60405843440599       1.56220406566910
S         4.02800381080654       2.12972898258257      -0.85197131747598
O         2.61424659677183       2.50115494212922      -0.85454997493045
O         4.86094701327417       2.85773613713112      -1.76786704887411
O         4.24215486166399       0.69158497821508      -0.79912381523244
C         4.55293541468370       2.67900964347474       0.84638302639466
F         3.70740647358579       2.13705430727072       1.75192720370147
F         4.49310198969401       3.99572065636613       0.99461408961657
F         5.77597350401330       2.27417298074110       1.16002740756427
