37
C11H20F3NO2 optimized with ForceField in AMS.
N        -0.05185851285231       0.24907173031683       0.16084459292149
C        -0.97224502567541       1.23888914078218      -0.48502440368171
C        -0.49383547347174      -1.14654577170509      -0.14521732340989
C         1.31148415675358       0.48800387831660      -0.42165995986798
C        -2.46503769802496       1.01150816533655      -0.17991201409781
C        -1.97195434752178      -1.41430565765441       0.18579261116875
C        -2.87962221147846      -0.41491908042943      -0.52056545340118
C        -0.01075744626618       0.48290072935725       1.63072657796694
C         2.44519307314180      -0.40722351863122       0.13740930108997
C         3.77453981914259      -0.09833474116064      -0.54681102166874
H        -0.86065139605871       1.20420642554210      -1.59396199756473
H        -0.70949822536440       2.27604181249932      -0.17439285092209
H         0.10181978647348      -1.88723339796285       0.43038840484613
H        -0.33903434528316      -1.37193423387166      -1.22549355692984
H         1.61001885596227       1.55067800914384      -0.26205052532871
H         1.28224358709926       0.33836617091283      -1.52623073256624
H        -3.06900549324320       1.71456298163099      -0.79341417801999
H        -2.69787107902043       1.23572955420818       0.88140658911791
H        -2.13970528041340      -1.37427439523376       1.28290918677459
H        -2.23754721176319      -2.43995900970956      -0.15063501413077
H        -3.93131148659831      -0.58128189550934      -0.20234917044326
H        -2.82259189246570      -0.56936000378721      -1.62072130250489
H         0.55619607340884      -0.31448616670818       2.15605464904646
H         0.45771550285573       1.46432999708768       1.86733435563904
H        -1.01946765960837       0.48198527355652       2.08682280907570
H         2.58205326327172      -0.23532760133060       1.22436237263902
H         2.22486241022745      -1.47979449215059      -0.03500117434019
H         3.70305141301615      -0.29140356610031      -1.63844195561403
H         4.05898115863662       0.96119403215501      -0.37832954000398
H         4.56946862443104      -0.74860795504579      -0.12385909687856
C         5.12233220121047       4.28829728735421       0.90202379225080
O         4.79699206107965       3.58825258271031      -0.04353278082218
O         6.00428386565224       3.91098821682286       1.65659687927550
C         4.44902308420817       5.60710962388183       1.13874211445950
F         3.86896992234891       5.61128406711780       2.39392667553247
F         3.46795488585438       5.82965413927972       0.18781676366457
F         5.38527183803538       6.62197535647802       1.06649719542794
