31
C7H9F6N3O4S2 optimized with DFTB in AMS.
N         0.99093053572464      -0.81799294618883      -0.25524941572556
N        -1.14634326075824      -1.03566102495744      -0.16115997491945
C        -0.01071869126343      -1.28450537129107       0.48725379291430
C         0.48849739304890      -0.28806150838157      -1.41180150064718
C        -0.86235464796724      -0.41986418734903      -1.34890524763813
C         2.39636722892704      -1.08052106297087       0.00190339575557
C        -2.45432858275965      -1.52317537174736       0.24485569897569
H         0.08643691328747      -1.79419862329822       1.43042287542671
H         1.12201336050693       0.10413654411132      -2.18758357720480
H        -1.63031185533628      -0.14834173421859      -2.05117918043968
H         2.54360148198884      -1.21922002955248       1.07105573164312
H         2.66482135355558      -1.99782960621911      -0.52689705356621
H         2.99448489227444      -0.24620407956028      -0.35973495981224
H        -2.54995270684578      -1.44192384958962       1.32647168378723
H        -3.22330250168984      -0.93262072017182      -0.24842843204481
H        -2.53461636983161      -2.57023558612808      -0.05590051844524
N         0.90581096649248      -3.23891812924704      -1.64757114491054
S         0.41686896027462      -4.21338383145880      -0.48413583218245
S         0.40471983995124      -3.43038301528917      -3.16438450090224
C         0.92295340540356      -5.99094862768429      -0.80433989150108
C        -1.46509009776603      -3.58840205884322      -3.26459102857101
O         1.18871103553963      -3.82368814157189       0.68244504980431
O        -1.02626333424231      -4.24610517225397      -0.32027930054815
O         0.89442232717685      -4.63216595894969      -3.78513485826568
O         0.66416476479532      -2.16117281613560      -3.80256411072993
F         0.84632131535753      -6.65721587370426       0.33530834226753
F         2.16775477402465      -6.02503006965675      -1.24276652261895
F         0.12325725449595      -6.54951726659038      -1.68811657859402
F        -1.83134999117367      -3.34170197013916      -4.51052853245382
F        -2.04932368584965      -2.67706489146507      -2.47709160325005
F        -1.88610956274198      -4.78547091559764      -2.91920783870319
