64
C18H26F18NP optimized with ForceField in AMS.
N        -1.90919029427538       0.10806695684186      -0.01141767920463
C        -2.09947853611196      -1.07946928031949      -0.89886290875598
C        -3.03623146874696       0.04099776529701       0.97010288901980
C        -0.60377706025691       0.00965446864626       0.71938726476379
C        -3.48164735724507      -1.64470760406329      -0.63995259007015
C        -3.73746732228330      -1.29333711719850       0.79862898819186
C        -2.00983867118426       1.36057943746861      -0.82750633866414
C         0.64837536517848       0.05855454402717      -0.18938310397373
C        -1.79282133811051       2.65998667060085      -0.03059840785589
C         1.92227173627346      -0.19256833740028       0.62683323297587
C         3.16675515114588      -0.17219781460058      -0.26896097365235
C         4.44210294870449      -0.36907823918562       0.55893392865719
C         5.68032708820244      -0.38641741178094      -0.33262961676159
H        -1.37396283751850      -1.89396074115839      -0.66972313754597
H        -1.98146407130772      -0.84486015386542      -1.98158485778318
H        -3.80035122302370       0.83174233810838       0.78995800399350
H        -2.70686478879512       0.15993344618155       2.02785165026159
H        -0.57724237834545      -0.94010111994727       1.30322675482575
H        -0.51877026959452       0.82404410790881       1.47310014663247
H        -3.52044266611964      -2.74311962220187      -0.80680434550218
H        -4.22676499097355      -1.13780777070910      -1.29255588811453
H        -4.82538069180253      -1.22286316688689       1.01646766811973
H        -3.26938766884192      -2.05405538912198       1.46197114686165
H        -1.27851000134862       1.34521322345987      -1.66351905145009
H        -3.01204320118742       1.41750257255857      -1.31234770018295
H         0.57881294134184      -0.70544100964293      -0.99185834031807
H         0.73568664159566       1.05720269400242      -0.66551092860040
H        -2.12748398634104       3.52472641366184      -0.64131279123203
H        -2.36825011856543       2.66676199357109       0.91661057991661
H        -0.71675678172969       2.80632867482263       0.19723003138392
H         1.85134955020033      -1.18246454569212       1.12933808306720
H         2.01621973753380       0.59432401859111       1.40797043662645
H         3.22335788855539       0.80203392974707      -0.80287919468266
H         3.08722622429409      -0.98546639441754      -1.02407822534498
H         4.54064384774794       0.45812180821518       1.29517650403557
H         4.38561394200646      -1.33063497338144       1.11427446510136
H         5.76760563179004       0.56971370827438      -0.89142363575116
H         6.58747605911804      -0.51518196588637       0.29478077793499
H         5.62457881261020      -1.22945848245014      -1.05356381963997
P        -2.26737890837425       3.60759548836751      -6.99489536529484
F        -2.49905918618324       2.70558005202189      -8.44361136164421
F        -3.21814417416942       5.04500878377299      -6.98040897778333
F        -1.52337798567639       2.09544561149482      -6.64818014348906
C        -4.06648330085310       2.94465538393135      -6.70639816210318
C        -1.18237740026662       4.45261863480061      -8.36019514246599
C        -1.28598486306928       4.02424074411268      -5.38498653896776
C        -4.24991677611423       1.40683834636026      -6.62810568176255
C        -0.45790415569305       5.76104881221582      -7.97636258611695
C        -1.80790782170530       3.43753850882005      -4.06225307681257
F        -4.87938521115090       3.38457436585436      -7.74413904151927
F        -4.58448187110714       3.47803621891175      -5.54214683239300
F        -1.97885368498670       4.77418384412233      -9.45597474759610
F        -0.20649783891502       3.55883613753120      -8.77814189498373
F        -1.28515566443879       5.39613350659293      -5.20995513184910
F         0.03390112470294       3.61917131613838      -5.52724360072151
F        -5.58432818726798       1.12969360997272      -6.38808498360775
F        -3.51740160923710       0.85315796425341      -5.60030992616060
F        -3.90063562358760       0.78763683493386      -7.81449578665941
F         0.11431103892950       6.30216458708736      -9.11409668102019
F        -1.33655895345159       6.69628331025376      -7.46267986118127
F         0.56408657699463       5.53365699413396      -7.07672569060395
F        -3.02304656007242       3.99317091211912      -3.71625094757599
F        -0.90862632541735       3.75208533503405      -3.05881303533976
F        -1.91421794597890       2.06566633988832      -4.11555171423056
