38
C12H22N2O2 optimized with ADF in AMS.
N         1.69868486204336      -1.41717611134589      -0.04125585275162
N         2.81001252352287      -0.71215841222214       1.69176334062244
C        -0.63381929023952      -1.81383893691028      -0.86061122001354
C        -1.55557389617798      -0.59619048295311      -0.83515785561739
C         0.82395309999659      -1.46347066458312      -1.21042079927964
C        -3.00152919941512      -0.96465585294170      -0.51647039827260
C        -3.93761351651718       0.24159172568926      -0.52720416764156
C         2.00875932034132      -0.32368253676136       0.68097954023283
C         2.20633487224712      -2.53687522080657       0.60349759613948
C        -5.38076368368543      -0.13236237605513      -0.19997963484344
C         2.88579373491546      -2.09381689818064       1.69185918096631
C         3.10972614597566       0.11944305951282       2.84582160754238
H        -0.64747536583143      -2.31021539800138       0.12565416684847
H        -1.00710977280936      -2.54978818001993      -1.59477953328575
H        -1.51610523368693      -0.09781094972825      -1.82375839999195
H        -1.18074628401562       0.11283225321718      -0.07480791631912
H         0.88336397924589      -0.48002955760133      -1.70205329080882
H         1.26545098893455      -2.19902731055313      -1.89922393223706
H        -3.36849031236328      -1.71953066920552      -1.23976328496943
H        -3.04126108487293      -1.44045860104402       0.48043949144107
H        -3.56671928226414       0.98524863416111       0.20091823312972
H        -3.89286484765253       0.72714687476368      -1.52003210072634
H         1.82294388397659       0.69527529657288       0.38098275176749
H         2.03017084811734      -3.53585971045101       0.22685778273072
H         3.39506517417154      -2.63230114863742       2.47973429018487
H        -5.44577397306567      -0.59349360450936       0.79908453770189
H        -6.04356424330178       0.74592604834343      -0.21080313373152
H        -5.77306613808119      -0.86047994757305      -0.92925784144193
H         4.09674227990646      -0.15234395685085       3.24074489155489
H         3.11020367448263       1.17087570561132       2.53954751025409
H         2.29860838257444      -0.06886100693606       3.57258590790621
C        -1.77888397423764      -0.26597334283852       3.12253152458692
C        -0.29648316315760      -0.32979505389045       2.72846824552771
O         0.43637097396838      -1.12821971947933       3.36341138697287
O         0.05396504740180       0.43507570843732       1.75830017225831
H        -1.87230906930739      -0.28899274421877       4.21808001239429
H        -2.27808334616556       0.62368828124125       2.71493739439785
H        -2.28760912797371      -1.16344782695193       2.73695075197087
