47
C13H26F3NO3S optimized with DFTB in AMS.
N        -1.17264881223253      -0.36330725360241      -0.19231751107820
C        -1.20952009116595      -1.23470092035574      -1.41599433801188
C        -2.09553809986979      -1.07350590449524       0.75425772303093
C         0.20433846817564      -0.29730771581160       0.40356865146200
C        -2.64148241543457      -1.75308725725434      -1.51465343711175
C        -3.23443899878850      -1.60778462804533      -0.10592573201379
C        -1.69532476370063       0.99449033809985      -0.55797941587520
C         1.27289360323104       0.20852168149000      -0.55900690971951
C        -1.68006717158836       2.01517125816807       0.57107059005439
C         2.65325456907514      -0.03108645932317       0.06463583758524
C         3.76686916593241       0.46137890400213      -0.86273665718101
C         5.14644244628977       0.20777770182458      -0.24709822701230
C         6.26482255144962       0.69553367807002      -1.16587937432154
H        -0.50114902374186      -2.05039703159626      -1.26005518567190
H        -0.90543915931975      -0.65563021994878      -2.28763998841472
H        -2.41992125683931      -0.39321080451321       1.54046013293352
H        -1.53029080514625      -1.89822387858782       1.19635694039442
H         0.45408682498103      -1.31096481957734       0.71747778842476
H         0.14591220198561       0.33088305717731       1.29454197221167
H        -2.63026783182755      -2.79626649129000      -1.83360916549029
H        -3.21876638707511      -1.17810186560305      -2.24224892494670
H        -4.08558179202375      -0.92274677153943      -0.10746208398018
H        -3.56899948170123      -2.56977959691434       0.28445033512671
H        -1.08499475623718       1.35918205614341      -1.38766203239433
H        -2.71722447251498       0.85505622205111      -0.91768373829270
H         1.21925508630681      -0.34507464652112      -1.49930211868331
H         1.13630040751732       1.27289458962985      -0.77597560660740
H        -2.19481050164548       2.90814290346535       0.21671986849580
H        -2.19831806972491       1.65205565204470       1.45663975961019
H        -0.66456255460043       2.29535491837902       0.84459882170883
H         2.77423468438540      -1.10383636942046       0.24321534090465
H         2.71660378256760       0.48503928693314       1.02858883165329
H         3.64006830191151       1.53341744982066      -1.05340807802844
H         3.69483923977943      -0.05965198783351      -1.82353336903460
H         5.21550708559719       0.72350110450634       0.71693900761215
H         5.26860142712627      -0.86427690836265      -0.06235981790729
H         6.16942904874126       1.76666823692977      -1.35133867877748
H         7.23506584384994       0.50799277325057      -0.70538875197694
H         6.22788515720388       0.17351010081888      -2.12303132739491
S         0.73365285539090      -3.92543327248758       0.41130111479377
O         1.64416502196219      -4.96351440548353       0.79938989160202
O         1.22283494561571      -3.00043799977213      -0.60715467894536
O         0.03997167011929      -3.24746209608072       1.50125158114894
C        -0.66937566294118      -4.79421127944304      -0.47221800928793
F        -0.65143578389501      -6.10546015492844      -0.31904179001696
F        -0.64809224698192      -4.52103607569202      -1.78047096012243
F        -1.84800569819872      -4.33820472232147      -0.01308881285425
