48
C12H28F6NP optimized with DFTB in AMS.
N         0.11287038252346       0.45607702035409       0.00250877253366
C        -0.72713686610760       1.38095075717228       0.84988585612088
C        -0.73310389432305      -0.52869269336407      -0.74961805768958
C         1.03983603178194      -0.30771176508908       0.91184685312507
C         0.88564005665665       1.29642607278802      -0.98240745050586
C        -1.70960973872870       0.70066467288214       1.80014597489416
C        -1.80912727689712       0.08086987522004      -1.64786828249724
C         2.06698728347523      -1.20253110618712       0.22412825496767
C         1.94518081001096       2.21261265753942      -0.37050092063318
C        -2.32381533520011       1.76793016232203       2.70733465758838
C        -2.61247240062876      -1.04235601668079      -2.30369235420414
C         3.02489488205159      -1.73361103009379       1.29250147788444
C         2.59948907971353       3.03213896204831      -1.48178392352647
H        -1.26243959503355       2.04752224348281       0.16985257246794
H        -0.02774564888720       1.97372032239351       1.43721616574457
H        -1.19726441110720      -1.18346868471322      -0.00836200224633
H        -0.05572741359862      -1.13094492953503      -1.35965021033420
H         0.41382266852386      -0.91424422037949       1.56798787212463
H         1.55255253768799       0.43072913159969       1.52453549373217
H         0.15272721145502       1.90362000227893      -1.51907044904061
H         1.34809138909126       0.61245652450124      -1.69879385207766
H        -2.50112493843501       0.18693388073631       1.24652474900842
H        -1.19315104153604      -0.02934221132774       2.42581528971107
H        -2.48614277171982       0.71139671843868      -1.06789910425813
H        -1.35341869980646       0.69648912257671      -2.42719306088374
H         1.58110967263395      -2.04214975584183      -0.28198288429233
H         2.64087776476544      -0.64380212840414      -0.51865690123002
H         1.49468193857302       2.89000532842636       0.35599985318264
H         2.71271390966072       1.63252595593487       0.14372592429468
H        -3.04288711073163       1.30382566954925       3.38094631604106
H        -1.54544417153468       2.24536596949407       3.30141421797434
H        -2.83563726720396       2.52860356798480       2.11698049252786
H        -3.37365103668960      -0.61541718554869      -2.95520680283956
H        -1.96188147780793      -1.68207832138359      -2.90047381061352
H        -3.10458551807296      -1.65343828346469      -1.54685494744693
H         3.78408835725391      -2.36155251887023       0.82810042137652
H         3.51559578546854      -0.90492394540859       1.80256361602890
H         2.48356070934778      -2.32512218013366       2.03070011356129
H         3.36026863870377       3.68008928483120      -1.04960872422329
H         3.07287678456927       2.37874615309789      -2.21595902093891
H         1.86107844241590       3.65297589756727      -1.99058401777563
P         1.88450301359685       2.28949569268556       3.72835730465576
F         2.56740979720013       1.33302829854047       4.85406489003353
F         2.99963639335022       3.44966511233077       3.94799487285242
F         2.84472308727819       1.58243656428438       2.54520656639110
F         1.16596211694018       3.20316048322690       2.51597943716052
F         0.73234229870798       1.09434361775195       3.42529411632175
F         0.88089829391269       2.96053359978585       4.82235210205189
