49
C13H16F18NP optimized with ForceField in AMS.
N         0.16983059670493       0.23955353617664      -0.04203787142072
C        -0.43720734781749      -1.06775786376515      -0.37731419024148
C        -0.87360745632227       0.91072275070084       0.76494039689078
C        -1.94447889636996      -0.85603896618869      -0.49033866421730
C        -2.22397196571722       0.45824000249994       0.22237944308653
C         1.41921548070912       0.09502970488036       0.76187196425009
C         0.42299655067553       1.03038408151593      -1.27633286824346
C         2.55864952383414      -0.63080135630800       0.02981039255964
H        -0.25605717654044      -1.80782537073043       0.43682355373358
H        -0.02608360366731      -1.49957533811346      -1.31767517443209
H        -0.77919355243253       2.02060048956332       0.74476476915949
H        -0.81974644003154       0.59395216643798       1.83324091322541
H        -2.49966668010841      -1.69487672790415      -0.01608465807304
H        -2.24063605015101      -0.78281858338629      -1.55988964850411
H        -2.61269721846768       1.20952016372655      -0.50007275331185
H        -2.96421694941958       0.32726260695410       1.04158973886928
H         1.79053865196004       1.09836115078531       1.07160084192059
H         1.21433876869754      -0.46988116372848       1.69989645133843
H         1.06539991887003       0.47420376870730      -1.99166236460887
H        -0.52288914949755       1.26257007887333      -1.81367369735988
H         0.92077724840029       1.99541077575631      -1.03435049785051
H         3.38942329390704      -0.80230979114892       0.74311772103484
H         2.22915672260345      -1.61738740254937      -0.35519000792816
H         2.95611952643786      -0.01551664991070      -0.80310249447047
P         6.98107546342175      -1.23328795647432       1.81023550148099
F         5.60894479164667      -2.10318919916963       1.23695769650509
F         8.03533291007179      -2.38741958024619       2.53402031419553
F         5.96757278535519      -0.19261552611741       0.89015358334035
C         7.81566917303741      -2.12388018359208       0.31086040905544
C         5.94381772388265      -1.56933533110495       3.41100795502167
C         7.83842256785410       0.42680846222475       2.25077789856441
C         7.34000312609695      -1.68059195471301      -1.09029499531842
C         6.60599949431724      -1.24527212317858       4.77792627176831
C         8.47759484855730       1.23648175040369       1.10613241377227
F         7.56576535891217      -3.48928773549978       0.39239393380939
F         9.19059834573169      -1.96531569863901       0.36999861593180
F         5.58831928239820      -2.91372198202274       3.46596395387627
F         4.77570906882059      -0.82654997389753       3.33421442068896
F         8.83153029982628       0.16443722610731       3.17753287083496
F         6.90643203282493       1.26318871538825       2.84123049741404
F         8.03868428998096      -2.39622997294226      -2.04672074164802
F         7.57319014734202      -0.34096379205540      -1.30939202895713
F         5.99247460771783      -1.93821839306144      -1.26602136134695
F         5.83501524051277      -1.80049433313279       5.78464020809232
F         7.87765586805692      -1.77423277272052       4.88788309968687
F         6.66102400795970       0.11351034075521       5.01168956473124
F         9.41495795785821       0.49918851460343       0.41654494848706
F         9.12723298959969       2.33104517307417       1.64936491116493
F         7.51694847145995       1.71473012936656       0.23420438394188
