54
C14H30F2N2O4S2 optimized with ADF in AMS.
N         0.00171673398713       1.20336035913250       0.21855608395829
C         0.51351201000548       2.03045375860852       1.38406097140462
C        -0.43829900540995       2.26807331621053      -0.76055177548753
C         1.09446081634958       0.34424804612525      -0.37924907988085
C        -1.19861225528030       0.37687190780973       0.67124259523098
C        -0.49403650862225       3.16956227763228       1.51569732678824
C        -1.09164979668045       3.35697884221363       0.09490854916330
C         1.64346413104692      -0.69724489443995       0.57145887065680
C        -1.71703875649200      -0.61537239332093      -0.35169696615617
C         2.68387856313038      -1.57984754195343      -0.12054704966271
C        -3.03353490611755      -1.22326588589552       0.14229527461445
C         3.21234894708310      -2.66534136359842       0.81655253705878
C        -3.53847087784727      -2.32895411336950      -0.78133982540469
C         4.25577755851995      -3.55498028101029       0.15087027522855
C        -4.82240034471026      -2.97499962542440      -0.26979339680057
H         1.50748938659226       2.39416343662395       1.08227568435386
H         0.60809311177172       1.40364623175355       2.27758354354858
H        -1.09084597168636       1.81626098084303      -1.51762722190705
H         0.47740984705085       2.63207293432655      -1.24953410381222
H         1.88109799834113       1.04719912924431      -0.70011322444384
H         0.66711516199547      -0.11992779259315      -1.28173134768415
H        -1.97944860422474       1.10624796689557       0.93102716855371
H        -0.90560291351446      -0.12949149064025       1.60001186807452
H         0.00337384908253       4.07614223686881       1.88596691005989
H        -1.27328298937015       2.90685389293568       2.24554080124529
H        -2.18601245588926       3.25003276240744       0.10707566331481
H        -0.87004023191790       4.34823217170425      -0.32563315207319
H         0.83433243506309      -1.34079424583677       0.94432164272980
H         2.10072476046199      -0.21681627336871       1.45211926798533
H        -0.99059742981631      -1.43221175000061      -0.48993251394101
H        -1.88343141320149      -0.14247069728852      -1.33692683550817
H         3.52396462516281      -0.95847937163017      -0.48674993516553
H         2.23024901572062      -2.05549984963911      -1.01176817996879
H        -3.80046486836618      -0.43071533028867       0.22868095782596
H        -2.87757405312259      -1.63621097977810       1.15364253638449
H         2.36950818693497      -3.28029667874236       1.17219394103198
H         3.63305652514120      -2.19036271993490       1.72012496807861
H        -2.75132782801964      -3.09883050600257      -0.87396174509489
H        -3.70159322100442      -1.91737520785647      -1.79504922929301
H         4.60291244368301      -4.33578789110138       0.84369051819291
H         3.83839601698049      -4.05741849922063      -0.73748163520382
H         5.13438726688906      -2.97304330557532      -0.17303241295281
H        -5.17153228239032      -3.76459085300114      -0.95195738100156
H        -4.65910855875112      -3.42959490464799       0.72023454079669
H        -5.62984401902390      -2.23144304335778      -0.17023182083616
N         1.15314755332631      -2.10673032587911       3.54114135904387
S         0.75331228838961      -0.68740546474666       4.15106239442379
S         0.03206150166928      -3.23795397950934       3.32230448477231
F         0.58188750534291      -0.96534174076998       5.75575398279563
F        -0.75381189635873      -2.66637677267500       1.92695455066847
O         1.91056251172608       0.18757063091045       4.04265375461625
O        -0.54603713832458      -0.15306736209172       3.74332485102296
O        -1.03634061481728      -3.29330636779296       4.29804711573873
O         0.69567512391154      -4.43191523956424       2.84365337941627
