31
C7H16F6NP optimized with DFTB in AMS.
N         1.08330735900607      -0.62591014333227      -0.05006501403811
C         1.01539395642284       0.87441804636991      -0.11289261276096
C        -0.15773881522495      -1.22192182604040      -0.63892461323136
C        -0.24216650020313       1.43291989427936       0.53510475892724
C        -1.43545018268100      -0.69471512064329       0.00407423158843
C        -1.49886586266380       0.82913818894245      -0.08809420548698
C         1.29233325384498      -1.08566764818848       1.34922046065743
C         2.24556099673024      -1.09427373989859      -0.86102452429500
H         1.05656336739541       1.14892293561230      -1.16930517434315
H         1.90664018304056       1.25868033092204       0.38217313796932
H        -0.08584165096991      -2.30636771525799      -0.52463363343616
H        -0.14812389494074      -0.97786234050769      -1.70487831808407
H        -0.23313543868372       2.51472851931489       0.38117547157643
H        -0.23339436327207       1.25194712740560       1.61337405211509
H        -1.49756343597817      -1.01253152718814       1.04849602070805
H        -2.28022594931457      -1.13854541525738      -0.52917172480753
H        -2.38694445863496       1.19226713839997       0.43407531011670
H        -1.57236168134555       1.13039734989324      -1.13793189627040
H         0.44998343086525      -0.79119979684320       1.96921436127174
H         1.38947121126894      -2.16993805541747       1.35044656288302
H         2.20530684336934      -0.62772152468337       1.72528370407196
H         2.17003759272191      -0.67991282861907      -1.86370169557668
H         3.16470027790224      -0.74936850735505      -0.39536985136271
H         2.22874756802843      -2.18194702877152      -0.90019199381890
P         4.80653482408842       1.41806949808525       0.07699335425020
F         3.72863760241414       0.64307082493036       1.15223025625937
F         4.23812956787004       2.85573322122122       0.61170810109175
F         5.95065377888624       1.38688598991154       1.22829796649347
F         5.79647845524203       2.13427527954871      -0.98810576255643
F         5.25322873675796      -0.08416816837448      -0.45045702990836
F         3.57417486955753       1.39657545374158      -1.07494811360342
