57
C15H28F6N2O4S2 optimized with ADF in AMS.
N        -1.96589899542562      -0.01523068573589       0.20352746205758
C        -2.78301409640783       0.82289014745629      -0.75854931539344
C        -2.61581235958552      -1.39008450109184       0.34634108380830
C        -0.58697648747639      -0.18024952299909      -0.41446419357007
C        -1.87517921681160       0.62779659562422       1.57858113251514
C        -4.25033378386555       0.92741691527252      -0.37592120353156
C        -4.08142173196114      -1.31700973214711       0.73006705746413
C        -4.88221816905055      -0.45903401207579      -0.24544096603019
C         0.42532235080896      -0.95011781550022       0.41012019545570
C        -1.14259878346880       1.95354521766576       1.61757812612037
C         1.74286009763042      -1.04526730212257      -0.36337174375612
C         2.79946290497966      -1.84226814983018       0.39852021399069
C         4.11360660587721      -1.96724755536522      -0.36907435255611
C         5.16320457522389      -2.77786232775008       0.38760605930316
H        -2.68249497750114       0.32332406072961      -1.73558511461655
H        -2.29735149984059       1.80633938493237      -0.82902392937419
H        -2.03568521410223      -1.93018126436003       1.10027553964162
H        -2.48541798281548      -1.88781934719645      -0.62714888913923
H        -0.22956256161434       0.83662294708403      -0.64177803934499
H        -0.76312052128060      -0.69368295307389      -1.37335189110283
H        -2.90706302081250       0.74927910560680       1.92717414196069
H        -1.40105888197735      -0.12153319843688       2.22720853289445
H        -4.74947601360822       1.52002269311130      -1.16087989009335
H        -4.36720627939615       1.49793743850109       0.56137703713272
H        -4.19314588156419      -0.94943594214467       1.76317686614726
H        -4.43610785686980      -2.35997477629582       0.74500126631414
H        -5.93057967301047      -0.37210663952649       0.08013033388321
H        -4.89244025011482      -0.94592796205313      -1.23818606296727
H         0.60719468452555      -0.45810403854270       1.37943308534850
H         0.06273726350254      -1.96614755799668       0.62657120295344
H        -0.08470678108009       1.86117515843125       1.33563702055680
H        -1.61503801575377       2.72660918496584       0.99420029925615
H        -1.17088646754074       2.31387178544911       2.65714336387850
H         2.13023968066609      -0.03149069868773      -0.58283538990513
H         1.55972294338720      -1.53230080470065      -1.33951089486301
H         2.39874120378254      -2.84815236169937       0.61847321647482
H         2.98774625145243      -1.36132992130874       1.37658472914168
H         3.91549417297524      -2.44053608794547      -1.34838663693808
H         4.50813915163257      -0.95691990906975      -0.58580893002553
H         4.79910725296481      -3.79772153542664       0.58895888336378
H         6.09952297062782      -2.85806271789575      -0.18482296318823
H         5.39738649477540      -2.31049508242480       1.35758674776095
N        -1.29736050621593      -4.75045186246955       2.97762964079207
S        -1.64292120796649      -4.79819426882502       1.40538536463433
S        -1.23789354794064      -3.40633161775510       3.82212483161979
C        -1.48099153018464      -6.66935494164089       1.24173802195117
C        -2.96324815033200      -3.21922404414692       4.56000815310220
O        -3.03594573327264      -4.48651854215192       1.06826455957265
O        -0.60312592783849      -4.23826317932566       0.53345589307360
O        -1.09661938796987      -2.17657089964411       3.02004848333859
O        -0.39646003495248      -3.59175209833773       4.99088164292943
F        -1.79892633610263      -7.00450057000457      -0.03478404214829
F        -2.32038690587253      -7.31467069279650       2.07677850022735
F        -0.21596332117986      -7.06723316571497       1.49044054693412
F        -2.96684760639902      -2.15947561727120       5.41385768586891
F        -3.33053680278563      -4.32223998133309       5.24295857608211
F        -3.89101899316403      -2.97695413440936       3.59585931279410
