36
C8H18F2N2O4S2 optimized with ADF in AMS.
N         0.64967005658549       0.41738009969422       0.04016889497043
C         1.93883096923972      -0.06325176018007      -0.60661016283138
C         1.14488340031241       1.00449519245329       1.35108857666084
C         2.78610899276353      -0.62032388331730       0.53652452238197
C         2.25389140169431       0.06566065474216       1.82128630970374
C        -0.27099419317233      -0.74803239083345       0.34138883837608
C        -0.01112156195711       1.47153339533406      -0.82456586340300
C        -0.90116211830258      -1.39595373567420      -0.87486430415261
C        -1.29175905052198       2.03060254844792      -0.24191285755505
H         2.41073879799034       0.82615512858905      -1.05511987993956
H         1.69611520224006      -0.77834663671790      -1.40171328462618
H         0.29822792422658       1.09584009704768       2.04339671742799
H         1.54278269814172       1.99955042442371       1.11241508881249
H         3.83975147538306      -0.36661185466583       0.35545560215028
H         2.70908764230792      -1.71548782778982       0.60946622196084
H         1.87597481285645      -0.67474890386890       2.54275017451454
H         3.03676221910516       0.65556344072894       2.31736897729868
H         0.33698799774310      -1.47336485833540       0.90014384948111
H        -1.04279760865702      -0.36329160595898       1.02374986759072
H         0.73356447132160       2.26859468748781      -0.94408278088686
H        -0.17052343710746       1.01571906603165      -1.81229359326080
H        -1.48847650001803      -2.26275561352767      -0.53453813745003
H        -1.58662022545818      -0.71889296587000      -1.40183856290702
H        -0.15478275872287      -1.76906670226004      -1.58976941352097
H        -1.64284698799973       2.82477399180693      -0.91759357054748
H        -2.09478193875181       1.28411977420603      -0.15762833456549
H        -1.12510909006132       2.49567075337737       0.74037350259779
N         3.27836452975428       2.62144281251608      -1.72374359475429
S         2.57425912656953       3.26770681265206      -3.03085985871872
S         3.64610883048046       3.47499571505220      -0.42302967507582
F         3.67628431711009       4.34279617454499      -3.58448457442805
F         2.12614096526486       3.94696425716542       0.16537586285537
O         2.51384033715142       2.21629083165163      -4.02604562235489
O         1.39462069915021       4.06345808305503      -2.73393928684224
O         4.33259166263705       4.73040391967072      -0.62417301549999
O         4.07912455380110       2.52382379782064       0.59176411013755
