33
C9H15F3N2O3S optimized with ADF in AMS.
N        -0.35976155151612      -1.20694451751000       0.02928118305261
N         1.71365291543197      -0.56718519450055       0.03968746115127
C        -1.74028817428167      -1.43842583450292       0.46902262431689
C        -2.69179783461102      -0.36128012420992      -0.04297618301294
C         0.57729431700096      -0.57529880035360       0.74904148946869
C         0.19654270839674      -1.62365769085929      -1.16182929440555
C         3.00001102263368      -0.03905659931378       0.51597686638043
C         1.50121670714562      -1.22627276562725      -1.15415701798462
C        -2.37831557065101       1.03082108063761       0.49535190195311
C         3.53094451567808       1.06005506529740      -0.38715657971146
H        -1.69905849945669      -1.48878406418356       1.56739009474672
H        -2.02178036408926      -2.43840405016883       0.10767154726051
H        -2.68221157482161      -0.35485482492626      -1.14795340542783
H        -3.70950183629612      -0.66264694607624       0.26066382531639
H         0.46429318963910      -0.22889281649424       1.76915966981877
H        -0.36667665303623      -2.20001223213215      -1.88472302784518
H         2.82683266435007       0.30316959740513       1.54332944939470
H         3.68614591306281      -0.89594203626600       0.58825067590723
H         2.29752273162063      -1.39387520683388      -1.86699039779333
H        -1.37592436196783       1.36623481930946       0.18573054517515
H        -2.42055800049924       1.04632987273973       1.59612520019897
H        -3.10234770806288       1.76849341717147       0.11756642938309
H         3.72385280811055       0.69769302783926      -1.40783474997529
H         4.48282879194414       1.43043410506849       0.02138939636395
H         2.82652483204845       1.90333279603887      -0.44260971309039
S         1.23661347972323      -2.56469677532611       3.24664310158986
O        -0.17918520705871      -2.20541468522535       2.99537889751768
O         1.49729025775570      -3.37683462095317       4.43011263142002
O         2.17493244271131      -1.44744124518599       2.99283261959362
C         1.62646473852233      -3.77282621820552       1.78839780743220
F         2.64200038559566      -3.30212798387669       0.99241702776591
F         0.54242806109236      -3.94437843237307       0.96615410673619
F         1.99825794258498      -4.99714860100306       2.22296242170260
