78
C22H36F18NP optimized with ADF in AMS.
N         0.94464164937878       0.08810401788564       0.12864189962328
C         1.15767155026200      -1.23292479686968       0.85021509470305
C         0.57268489565996       1.15498237172963       1.16016429556171
C        -0.15323967463952      -0.07715933163333      -0.90285073292632
C         2.21949652896735       0.53082124718877      -0.57818288982834
C         2.32772541893094      -1.25654386932467       1.81656308359744
C         0.08523114736017       2.48310601269314       0.60975200522671
C        -1.53388135463500      -0.40398494799432      -0.35828086801376
C         2.82638917130568      -0.44920979261071      -1.56448127027698
C         2.40356412256244      -2.60071773737121       2.54470913717108
C        -0.12169497667688       3.45621078787431       1.77802509767402
C        -2.55097991936605      -0.42480756958710      -1.50366635203361
C         4.11091046335969       0.16589404141860      -2.13539986787661
C         3.56589811233073      -2.62805781234135       3.53505418409138
C        -0.50074453597146       4.85289307715172       1.29654738302198
C        -3.95786430046061      -0.76405598772145      -1.02029216396633
C         4.80552495732892      -0.76118230768649      -3.12663376715783
H         1.27526859320524      -1.99884974725346       0.06869570334474
H         0.21977303681465      -1.43778652005241       1.38574071019604
H         1.47662502733669       1.31914482792197       1.75877441408494
H        -0.18847207380575       0.69732171173138       1.80989795651998
H         0.18323998244435      -0.87294417161139      -1.58208744113298
H        -0.17701555846948       0.86385099940952      -1.47145486577002
H         2.93791391490739       0.76983263535672       0.21269736021737
H         1.97251728585487       1.47628979666619      -1.07870412032172
H         2.23257770795047      -0.45658761030522       2.56527128947632
H         3.27820743358787      -1.08247700498093       1.28841032855310
H        -0.86342380400724       2.36924535599783       0.05721408072233
H         0.82757966445231       2.92092709307690      -0.07411490027412
H        -1.85042612294563       0.34554373979260       0.38539822161684
H        -1.53763217975744      -1.38672134038133       0.14190413667744
H         2.13686415941959      -0.67325038833593      -2.39609382149565
H         3.07651870462096      -1.40508062932916      -1.07273410540756
H         2.51504691267039      -3.41725525941475       1.80819462664316
H         1.45279735888630      -2.78407511312201       3.07764143891298
H         0.80967315693986       3.51936303163713       2.36353369292854
H        -0.90555463816223       3.05728681455954       2.44849513568875
H        -2.22995458685561      -1.15794884780429      -2.26554138310879
H        -2.55534694396675       0.56173283171914      -2.00099214078234
H         4.79401391177067       0.41528302460560      -1.30469204660900
H         3.86667379305048       1.12464671115228      -2.62303219540865
H         3.45940546872748      -1.83084055341689       4.28669929172208
H         4.52575971979523      -2.46758162428237       3.02018427376094
H         3.61766756780438      -3.59156821208853       4.06253667513755
H        -1.41714204103234       4.83433114623289       0.68484320979966
H         0.31287730208211       5.28691418807430       0.69708955668567
H        -0.67035339029846       5.52463293942838       2.15057608953900
H        -4.31172947667860      -0.02424443168249      -0.28503790187752
H        -3.98318583653030      -1.75567505729024      -0.54138478378326
H        -4.67191135478839      -0.77543339124095      -1.85686539522976
H         4.15094825163139      -0.98966703320932      -3.98296867466243
H         5.08669856660710      -1.71372205941198      -2.65009456726080
H         5.72313584156359      -0.29797989233143      -3.51831008291814
P         4.43150014186134       4.79585615810596       2.51934670011277
F         4.81543568722366       5.49346957377430       3.96805390599106
F         2.92465448038748       4.28803413502384       3.05884802579711
F         5.90400500097887       5.24317627347185       1.89738891370094
C         3.59938255719913       6.52573124128480       2.09903157155399
C         5.19790162766087       3.07152569675070       3.32028001587999
C         4.12430525040011       3.86818887989222       0.72898345861953
C         4.51095380262893       7.76329853655006       1.83985727258935
C         4.58443687519964       1.63241283198063       3.17089151851957
C         3.82438135168181       4.48658208303377      -0.67995955415040
F         2.78880480163761       6.89399225002657       3.14996668195773
F         2.76429870746831       6.43869976707995       0.99670269528372
F         5.14997578065764       3.22134657367775       4.69317281401253
F         6.52369202632230       2.91779641349474       2.98025147639254
F         3.09298117809572       2.93526335910018       0.88068069546831
F         5.27812337204209       3.14425743527776       0.50278243245311
F         3.72532392579912       8.86915117414703       1.66633452427044
F         5.25460756202192       7.62069960021321       0.71792230883633
F         5.33688899494174       8.00344403823026       2.87952908288040
F         5.20278168186956       0.78551193021745       4.04165381422275
F         3.25525604654435       1.61053852929955       3.47415823384922
F         4.73528279433935       1.07215402487281       1.93945697489015
F         2.50376718138475       4.75636747021293      -0.86251754863096
F         4.14218502681683       3.56084961197241      -1.64765837427853
F         4.54677760201461       5.58856528429054      -0.92655598369722
