25
C9H10F3NO2 optimized with ForceField in AMS.
N         0.19888304761492       0.01169030025784      -0.37583403790729
C         1.65066857150150      -0.00445014417780      -0.59396585707137
C        -0.45789847462372       1.20667220905493      -0.26278454333605
C        -0.48856577280429      -1.16821433227088      -0.28741360037589
C         2.38968067732943      -0.01180349146052       0.73923124999001
C        -1.84158222801287       1.24043497614967      -0.07253984086268
C        -1.87274097616989      -1.16988702327300      -0.09806872422739
C        -2.55125413475150       0.04341131466561       0.00404271036178
H         1.94584186442955      -0.90102254988420      -1.18308804837633
H         1.96431876134077       0.88477206583293      -1.18471365750263
H         0.08682077861631       2.14174290783336      -0.32135023223391
H         0.03184695143009      -2.11561646666735      -0.36442685142920
H         2.13111958298778       0.89586828164387       1.32442986192424
H         3.48525413761693      -0.02182321499696       0.55825260231667
H         2.11422311148620      -0.91535177082184       1.32316202712303
H        -2.35855578796966       2.18757063256282       0.01170627217745
H        -2.41392944861374      -2.10497571428778      -0.03260211112108
H        -3.62426068230248       0.05590980570962       0.14640542771030
C        -3.24224502424233      -1.31493161193658       5.19976639771284
O        -3.61670491432162      -0.64361571058480       6.14809205935365
O        -3.38680852410627      -2.52661695173122       5.22478639144325
C        -2.61336761670508      -0.66202667510628       4.00481396190174
F        -1.34650234197146      -1.17940973244938       3.80652022096846
F        -2.51703375860957       0.70626881859074       4.19051352684672
F        -3.38668438474899      -0.91147847485281       2.88715775071369
