44
C14H23F3N2O2 optimized with ForceField in AMS.
N         0.22740190111695       2.31042617888617      -0.21789090468318
N        -1.85009602321836       1.51244719232063      -0.19775617596311
C         1.61975498347048       2.50158459502372      -0.62542795520973
C         2.54508710438792       1.48745424373702       0.06663392467416
C        -3.03903636870115       0.75729019569933      -0.59274535260648
C         2.10970560064836       0.04161513816382      -0.21240576148529
C        -3.07940871510516      -0.61424827751835       0.09759391362047
C        -0.74052322475350       1.70762390277619      -0.93691693740103
C        -0.29174877585010       2.51474480650670       1.00964906055122
C        -1.58104004300740       2.02104394752152       1.02164906161611
C         3.08401212708986      -0.97592729764912       0.38570075620011
C        -1.90318590951553      -1.50411320352432      -0.32872544513611
C         2.58032791880963      -2.40086205915727       0.16784349159800
C        -1.97541216675947      -2.87850192118006       0.32782919244704
H         1.94090079556159       3.53405420361477      -0.36939599442519
H         1.71082167084798       2.38523105130114      -1.72789462895448
H         3.58118958505454       1.64203288997699      -0.30547496723841
H         2.54246782050994       1.67320964229901       1.16292827533831
H        -3.94764608795071       1.33546248851261      -0.31902278299868
H        -3.05222952273097       0.61565432588790      -1.69588666941858
H         2.03333709687334      -0.12002563209311      -1.31042376088317
H         1.11342597887054      -0.12327387052144       0.24383731308144
H        -4.03337038076779      -1.11679547914779      -0.17290830274564
H        -3.06662380992619      -0.47528973889267       1.20080028541909
H        -0.61102673088997       1.34367193855651      -1.94850126352873
H         0.24482570842637       2.93951678351690       1.84795888127539
H        -2.25283748563344       1.98999398961139       1.86953741517548
H         3.19532308108520      -0.79541536760937       1.47715882259414
H         4.07812322962297      -0.86981020273530      -0.09567012495452
H        -1.90291731294883      -1.62891557093582      -1.43341180845222
H        -0.94916054989946      -1.02864805553046      -0.02960207886530
H         2.48319697986412      -2.61397596070154      -0.91829985480563
H         1.59175145132561      -2.54049108114781       0.65604666213597
H         3.29946565257858      -3.12225701846147       0.60899285059241
H        -1.97024325325609      -2.77837206755821       1.43426456276890
H        -1.09309598349338      -3.48066317213285       0.02304580551062
H        -2.89685557448385      -3.40994769500866       0.00910274038725
C         7.29984447526516       0.58585795196676       0.08754047325835
O         7.37348201489509       1.66864695151499       0.64702598863738
O         6.34156983195585       0.34039296809811      -0.62675267669059
C         8.37793221130021      -0.43999235233494       0.26900542870332
F         7.84655945564129      -1.56670534265086       0.86911610229608
F         9.39480033306508       0.05874151093010       1.06478664762313
F         8.89947737852469      -0.78427552623087      -0.96453583155828
