28
C10H12F3NO2 optimized with ForceField in AMS.
N        -0.49690106831758      -0.02160571416146      -0.36127621709682
C         0.92703177537335      -0.03124035337045      -0.71925787550596
C         1.79239313228086      -0.00676052686033       0.54392644194998
C         3.27825581233436      -0.01477148474521       0.19663160647444
C        -1.13808152802611       1.16967568858949      -0.15601402973324
C        -1.17286634843228      -1.20429664245029      -0.22939091530218
C        -2.49507077671132       1.19727214178091       0.17493789236392
C        -2.52923548933720      -1.21230306935700       0.10496729692969
C        -3.19250941424885      -0.00272305596547       0.30440691425020
H         1.16791845348978      -0.93765869732345      -1.31888300615831
H         1.16539444910440       0.84646118968290      -1.36001024268315
H         1.56176935959586      -0.89765681115058       1.16752978102270
H         1.56332812525986       0.90562085327860       1.13602775652413
H         3.53479249262063      -0.92865848012230      -0.38039888388265
H         3.87818174369605      -0.00453914520209       1.13079635998867
H         3.53946423264449       0.88263207949223      -0.40336363349201
H        -0.60234712796376       2.10674429141036      -0.24650597429013
H        -0.66464715262077      -2.14958238238745      -0.37868205539200
H        -3.00059736813879       2.14164810013024       0.32998617456560
H        -3.06070042062563      -2.14957232492483       0.20798004314397
H        -4.24386863556238       0.00455964809270       0.56095051950534
C         0.65916745482176       4.43889900043589      -2.02521869284092
O         0.41668904171707       3.35317853951874      -2.52784003490391
O         0.12332585104672       5.44134281863568      -2.46971018190506
C         1.61035207756996       4.54980797631676      -0.87059788766375
F         2.66794586844449       5.36806557254447      -1.22167308198078
F         2.10190454535279       3.30470770296274      -0.52157323738252
F         0.95453115403223       5.09538970414921       0.21725075449476
