45
C11H20F6N2O4S2 optimized with DFTB in AMS.
N        -0.06038051366333      -0.05391573826769       0.40158948001592
C        -1.03010054723548      -0.41168061518885      -0.68232362047235
C        -0.82829224910402      -0.32735963049062       1.66375083442660
C        -1.78308284731460      -1.63438470183083      -0.16619232387404
C        -1.68525889420750      -1.55401518809496       1.36469989026580
C         1.13927369850972      -0.96189585393700       0.35485188890896
C         0.30358040969300       1.39814711807944       0.29100807906752
C         2.10204873220157      -0.72472114822043      -0.80434694859626
C         1.25433879590986       1.88492013174785       1.37170311586677
C         3.22950857569628      -1.75444869582427      -0.71243301270915
H        -0.49239829032621      -0.59004863411852      -1.61300911344105
H        -1.70733435199314       0.43518087387997      -0.81582568502715
H        -1.44984208701469       0.54697615061688       1.86883472972154
H        -0.13404050130401      -0.48282956503962       2.48946053958714
H        -1.32795162080416      -2.55506738077196      -0.53638899385793
H        -2.81911396441657      -1.60786136591641      -0.50776484358143
H        -2.66924052523918      -1.44207596462297       1.82288602211486
H        -1.22337563672050      -2.45516628221299       1.76906874021344
H         0.75438556996607      -1.98220793375264       0.31346214223567
H         1.66810606182500      -0.83790312162450       1.29698863313377
H         0.73568243432801       1.54581929069826      -0.70154342512504
H        -0.63614296636621       1.95570006181092       0.34170150064107
H         1.58908071604798      -0.82034412263175      -1.76646560099921
H         2.53606837608548       0.27602708414695      -0.74496528647844
H         0.85067630363282       1.70452159308377       2.36545008835415
H         2.22760486563914       1.40530465687538       1.29958006208704
H         1.38755705749566       2.95812279645948       1.23744237514394
H         3.76780377738504      -1.63551963879602       0.22760786187344
H         2.82975323240896      -2.76759009971079      -0.76306128066238
H         3.92571279940578      -1.61037236519264      -1.53761640477650
N         3.38762445756647      -2.21324947470137       3.25395313039596
S         2.60324406038617      -3.11802111761034       4.33199838543552
S         3.10842466971329      -0.64634860824103       3.32237063984643
C         0.88409447845232      -3.34826201101076       3.59825949498145
C         4.01421998956091       0.10584641203880       4.79079948183892
O         3.16417245378940      -4.43607313449541       4.26936755804888
O         2.38455634651440      -2.50244497278233       5.61322740920570
O         1.71209478254108      -0.26424953299447       3.52345943083252
O         3.75546935695644      -0.06273478541714       2.16219230115291
F         0.41876943150047      -4.55615521578789       3.85937602818458
F         0.94502941048310      -3.21176504614974       2.26222658725007
F         0.00796524499318      -2.45547959605185       4.04076040414920
F         4.51707648460825       1.27313341459295       4.41522449250520
F         5.00016953897514      -0.68358489509819       5.17173323065192
F         3.18811684643863       0.30330710325531       5.79657261936409
