71
C21H29F18N2P optimized with ForceField in AMS.
N         3.00770741307247       0.90830841516503      -0.04056842920307
N         2.86156001045152      -1.30819782790260       0.08309832666831
C         1.44515967203571       2.81149607971176      -0.20861871606417
C         2.80655348152589       2.31521357836689       0.30155911806029
C         0.99527995975852      -2.66739754742926       0.96775443301595
C         2.48074398021766      -2.63207862561446       0.57387904290059
C         0.27712629869443       2.13325987698813       0.52419364905628
C         0.07678915886499      -2.31328391487597      -0.21260082952438
C        -1.07356365776094       2.56908464234949      -0.05320861672524
C        -1.39741642820161      -2.32287362875643       0.20581864832250
C         2.80629243772820      -0.14950928202720       0.76909453499671
C         3.20905715229174       0.40163360631221      -1.27387049884952
C         3.12380791285077      -0.97284780074239      -1.19630258762405
C        -2.22952585333877       1.90780114891715       0.70717386031784
C        -2.29655985626487      -1.87558122371916      -0.95350784542690
C        -3.57497251149851       2.24280450782224       0.07159216137937
C        -3.76356056197035      -1.84436370919727      -0.53619612463783
H         1.38526285930669       3.91003706046341      -0.04874452611301
H         1.36939067484465       2.62107292291701      -1.30157767378480
H         0.82066716920444      -1.95665757402136       1.80481206265145
H         0.74878055309152      -3.68846230565558       1.33179447408716
H         3.61732166399415       2.92156222517245      -0.15691801638972
H         2.86704867996215       2.45374139128141       1.40355579030012
H         3.10395575875357      -2.88703553959720       1.45784870283806
H         2.67302102357685      -3.39954568738683      -0.20793252649320
H         0.32226764309597       2.39369238758937       1.60456209790565
H         0.35955342476668       1.03040036386040       0.42462424525214
H         0.23392028292986      -3.04497523265464      -1.03523246032340
H         0.32992998019273      -1.29973636622020      -0.59117307163512
H        -1.17044537803913       3.67482410984243       0.01833878341958
H        -1.12163807355285       2.27670570775936      -1.12561068029012
H        -1.54008129704332      -1.63406908370971       1.06735748900127
H        -1.68366815130207      -3.34963902778329       0.52331804500135
H         2.53322820457060      -0.07241308842277       1.81448726779686
H         3.34574309535580       0.98911547562221      -2.17243947271137
H         3.17657545579647      -1.66872265128285      -2.02349334823429
H        -2.10018499932557       0.80465278492823       0.70527577263159
H        -2.23031730845192       2.25758251033971       1.76253533712461
H        -2.17932031733303      -2.57568018513533      -1.80927278849683
H        -1.99971501968921      -0.85780376358088      -1.28971974807118
H        -3.73917718207942       3.34138482955991       0.07155806078387
H        -3.61245667406049       1.86407446763130      -0.97213425678799
H        -4.38969889945452       1.76039750806601       0.65176463696365
H        -4.38681109405646      -1.51818872138121      -1.39538197036614
H        -3.91214697822058      -1.12901113556684       0.30057512791902
H        -4.09586031090290      -2.85570255346931      -0.21907321025047
P         9.95451853861224      -1.72472844733378       0.44871390013389
F        10.05533615547120      -1.61529401750406      -1.26944377507391
F        10.26041761200290      -0.17184310770593       1.13040165036997
F         9.41542725534087      -3.21037161368798      -0.23137441200075
C         8.33008838747426      -0.72769272642571       0.12425970983788
C        11.85062490870084      -1.65766144462412       0.06734785233210
C         9.89735372900087      -2.79405342995564       2.04402265114246
C         7.19301575749444      -1.49721519337478      -0.58117466173750
C        12.81799395376663      -1.56467940689433       1.27457222337506
C         8.52409483188586      -3.31159327361345       2.51084907376815
F         8.62698085822405       0.36776875448546      -0.67854331133919
F         7.82361595276534      -0.22571278275560       1.31303709192062
F        12.12226625661991      -0.54901495367328      -0.72867662209460
F        12.19957495443655      -2.79286211251184      -0.64892129581451
F        10.42514590009166      -2.04812040239279       3.08269146363057
F        10.69806638971567      -3.91046160528162       1.86542599723877
F         6.15320529304611      -0.62053309610674      -0.82782031105981
F         6.70833418526193      -2.51695837316935       0.20862918001294
F         7.60499553285461      -2.01918017539890      -1.79351543011205
F        14.09157373247051      -1.30230419917752       0.80048050102466
F        12.47589698264176      -0.54394544588582       2.14106059814731
F        12.88038478471273      -2.75345784318917       1.97198045551702
F         7.62949085196123      -2.28080634047211       2.69992219251418
F         8.68444192902477      -3.95315828423546       3.72653439306195
F         8.00535776853552      -4.23253045584888       1.61966937231336
