37
C9H13F6N3O4S2 optimized with ADF in AMS.
N         0.98555950902137      -1.16876885956700       0.54223612586135
N         0.65705295323988      -0.21770545013551      -1.38159091103150
C         1.56628115782958      -2.05003276290547       1.57477691508837
C         1.85681469854448      -1.30304453623866       2.86997686220247
C         1.40720554111598      -1.11454073865588      -0.72721732203230
C        -0.05953343282893      -0.28383318637436       0.70447382625833
C        -0.26608484431425       0.31298293782266      -0.50586640745836
C         2.85301087171289      -0.16514979673356       2.68662820150585
C         0.79617747200793       0.10523819745419      -2.80098435530703
H         2.49877331461217      -2.43880802942371       1.13940030267136
H         0.85794149926854      -2.87937016727046       1.73066637791471
H         0.91319977981077      -0.94230142727417       3.31769556417228
H         2.25181134501122      -2.05649663874141       3.57368862246769
H         2.24694942534658      -1.66838496132019      -1.13289419774140
H        -0.55021257039755      -0.13692192390825       1.65754855640912
H        -0.96765533091549       1.08055324361014      -0.80794896619108
H         2.46821443240886       0.60968226634791       2.00801060246623
H         3.79319160595388      -0.52614544344180       2.24549455761981
H         3.07810344142686       0.31274041158301       3.65044724846297
H         1.85447022028609       0.00245118152102      -3.07049661580537
H         0.16864010066777      -0.57592960920582      -3.39113517171704
H         0.48220049798341       1.14311154751100      -2.95314574553062
N         4.63805190486307       0.57828311273063      -0.02851484845746
S         4.69323321996579      -0.62256078465487      -1.07616867184216
S         4.82619497354283       2.13526219964532      -0.43736827338373
C         6.50787253323793      -0.87602238831050      -1.59723011481262
C         3.07577299418307       2.71102118492619      -0.88470557690705
O         4.37189896935032      -1.84664985682918      -0.32626633981090
O         3.98052264299079      -0.42060216210386      -2.34711459925201
O         5.59944202376491       2.37278476241347      -1.64746514925868
O         5.08467469833982       2.86844265584478       0.79029886527942
F         6.68198009720007      -2.18222201286687      -1.91454579321368
F         7.34239200366147      -0.55953475422319      -0.58437928393455
F         6.80904590996274      -0.12851123990327      -2.67328188819439
F         2.14713651631378       2.22222934815245      -0.00887782853291
F         2.70956704090461       2.31718089926646      -2.13260069120676
F         3.01758633422679       4.06114985275874      -0.84074580205834
