43
C11H17F6N3O4S2 optimized with ADF in AMS.
N         1.29998759375428      -0.73495376294689       0.59689529692621
N        -0.15230094153667       0.79271968544241       1.11176523213623
C         2.57046217126447      -1.47619924585700       0.50537209371228
C         3.06720938999580      -1.53752372137738      -0.93606350653048
C         3.32319171578959      -0.16094715411736      -1.54662810256759
C         1.10159470091274       0.36921996507467       1.32816410057605
C         0.14914784078186      -1.01908876848080      -0.11038066520213
C        -0.76142804863837      -0.05377778443045       0.20979391954668
C        -0.73162410976043       2.03664924694790       1.65338964817351
C         3.83543629138382      -0.24870863066990      -2.98041366973694
C        -0.38824769063761       3.22354879795389       0.76983445240567
H         3.28642510807826      -0.93199843776242       1.13700886937161
H         2.39892064447382      -2.47957067585348       0.92602521731366
H         2.35559803418336      -2.11165748777548      -1.55903802183519
H         4.00298791278625      -2.12411718775636      -0.92412152187789
H         2.39785298559357       0.44135260193659      -1.51758540357232
H         4.04972509881476       0.37337597670058      -0.91652536940369
H         1.80986026085594       0.85822497337833       1.99076925367485
H         0.07533376723937      -1.87338727028028      -0.77043770093852
H        -1.81555058255417       1.86495010427697       1.72935342050334
H        -0.31941779211550       2.16750856979510       2.66283513835102
H        -1.78239794245290       0.09884869320443      -0.11763288960335
H         3.10757757119629      -0.74803227722999      -3.64042825180726
H         4.77848830755967      -0.81635859142681      -3.02765055305235
H         4.02840146784053       0.75524730673583      -3.38724776459097
H         0.70186028104376       3.36301434267894       0.72982747249338
H        -0.84157692377509       4.13096376186076       1.19480664177379
H        -0.77341102176191       3.08467952709280      -0.25163483343215
N         4.17192070998271       3.32202299993823       2.63680693851653
S         4.12499227441773       2.50993687273936       1.25481556358803
S         3.14271924506532       2.97993646695277       3.81024454154248
C         5.67559663140898       3.24607238363991       0.48223847065546
C         3.87895610163012       1.48654039739819       4.72845692987112
O         4.40871246337504       1.07203186952514       1.39199901748286
O         3.03610955201919       2.87971856399897       0.34467265091149
O         1.84895967647076       2.44799485975781       3.34192470337343
O         3.16572282814849       4.04636058193332       4.79244745700736
F         5.85407239577595       2.63242444688596      -0.71779820761803
F         6.76522387957154       3.02720499277458       1.24312666214057
F         5.53403309533762       4.56980589508646       0.27428476090759
F         3.36250271056726       1.44629431204926       5.98030599692410
F         5.22098779808245       1.56658181154400       4.81241514584460
F         3.55237005323136       0.31980319426143       4.10623709174495
