41
C11H22F3NO3S optimized with ForceField in AMS.
N        -0.10852790304425       0.02704686349432      -0.06737355196195
C        -1.01915615728673       0.53538353488681      -1.14487982792455
C        -0.63176803263363      -1.29075693046442       0.42194231393561
C         1.23156761923338      -0.19653138630927      -0.71218350777416
C        -2.49220771247521       0.64968585013502      -0.72005006749176
C        -2.10594288247136      -1.25253449262602       0.87360895174632
C        -0.01287873649103       0.98922336953519       1.08582639920249
C        -3.01104150105648      -0.69525354185658      -0.22126492166429
C         2.36840884757147      -0.65377711196476       0.23441413347675
C         0.59377303002358       2.36579508256129       0.75930958251618
C         3.65500101232241      -0.89848932546064      -0.54987721948770
H        -0.99064958302056      -0.15090293311638      -2.02392120384419
H        -0.68154889266436       1.51833725429049      -1.53431627112390
H        -0.04007680992919      -1.65824515307953       1.28756780872302
H        -0.54736621688859      -2.06429163314315      -0.37608075456114
H         1.56787938988999       0.72632884635753      -1.23605459302697
H         1.14037104556223      -0.96334211869241      -1.51659418284573
H        -3.09608639657011       0.96057392746896      -1.60016382345416
H        -2.62869623981116       1.43274737174393       0.05377930789707
H        -2.22098321130959      -0.65824082457491       1.80383911057471
H        -2.43409321794338      -2.28701568368728       1.11480846675599
H        -1.00700405125212       1.18349033795228       1.53219980484430
H         0.57695617579434       0.54402426466415       1.91617785353617
H        -4.04122844728009      -0.57073214014660       0.17620982492934
H        -3.05378846588332      -1.41481285914792      -1.06854500404868
H         2.58528688980081       0.12135106041329       0.99725751323712
H         2.10425950319834      -1.59902658958231       0.74899574548368
H         0.61780190081057       2.97279913319683       1.68915137875171
H         1.63744003579394       2.28606155381603       0.39650288769532
H        -0.02282896984537       2.92278537589886       0.02682623281054
H         4.46952032808862      -1.19043573660354       0.14611501274163
H         3.50877850207737      -1.71335941460119      -1.29019107860757
H         3.95771390289139       0.02469540229798      -1.08367798775700
S         5.81414652744594       3.34470741854349      -2.30467736249397
O         4.73751510632622       3.42725647269034      -3.39696889856258
O         7.09492197187633       3.04143006714933      -3.09597170542711
O         5.50945745752327       2.00819782176083      -1.61521848804981
C         5.90792712300701       4.77567874743961      -1.19216128433209
F         4.69466986194015       4.94110755812465      -0.55096746551693
F         6.20105586445359       5.91046641731016      -1.92435885149794
F         6.89969194092559       4.56403254112554      -0.25308188880378
