36
C10H23NO2 optimized with ADF in AMS.
N         0.49825039811111      -0.34631888842042      -0.03010863714880
C        -0.47180024433043       0.16606535892752       1.01042045889612
C         0.13799229329290       0.14770850713255      -1.43541883452721
C         0.45504929795164      -1.86553422265830      -0.03049734045490
C         1.90416545766380       0.15199297629000       0.28805484435508
C        -1.93242291856223      -0.15431772648917       0.74925521694446
C        -0.11228379630635       1.63695285118551      -1.54407160829708
C         1.51329603319116      -2.54347886634416      -0.87843677317441
C         2.45055805928632      -0.28452663601237       1.63167935864758
H        -0.15252308995803      -0.26657178659436       1.96860033235522
H        -0.30973461332072       1.25218674041999       1.06051930384014
H         1.02933326975074      -0.11081161260955      -2.05053315238997
H        -0.73892475733861      -0.44349195702206      -1.73981116909889
H         0.52993277100114      -2.17577707723701       1.02342060394114
H        -0.55005858967758      -2.13164300063183      -0.38647529464657
H         2.51736338628970      -0.17710272503699      -0.57136079778650
H         1.86579640338983       1.24529336153915       0.19841471413247
H        -2.52848865919113       0.30164335499787       1.55472598955424
H        -2.28794717853661       0.26187879369377      -0.20297566633155
H        -2.13820725940924      -1.23359920725660       0.76371712980585
H        -0.39451687924321       1.82820097111920      -2.59205168417750
H        -0.93120563415679       2.00805297857798      -0.90946680361556
H         0.82407610780129       2.19408571597199      -1.38338332881724
H         2.52526223628263      -2.39835471749221      -0.47941719594024
H         1.29556720701505      -3.62322209332234      -0.87783055592089
H         1.52697090102757      -2.18108966923612      -1.91443305273725
H         3.48315142691283       0.09357286759486       1.69288942881379
H         1.90377556481370       0.13368985476480       2.48990611550551
H         2.50195138420941      -1.37772625181685       1.74421651266118
C         4.30824398240304       1.10477006532906      -3.86794274296147
C         3.29599903857288       0.89471239866613      -2.73322790446555
O         2.86940703642126      -0.30760378889375      -2.59344664770559
O         2.95542379021329       1.89913079678418      -2.05029982946081
H         5.05145228967173       0.29390155723158      -3.87121097326311
H         3.77595912032956       1.05874858787351      -4.83175655767793
H         4.80546962712838       2.08098522937445      -3.78581787675378
