35
C9H18F3NO3S optimized with ForceField in AMS.
N         0.40976765847775       0.20273945142017       0.05258233582997
C        -0.50959602357582       1.26352166314546      -0.47023311507753
C        -0.14354301991799      -1.15669956946865      -0.23703567738152
C        -1.97519327793722       1.10963311407005      -0.02339980510957
C        -1.59685741388450      -1.34603875872508       0.23108653797072
C         1.71671122083074       0.38016046889845      -0.66301380174285
C        -2.50259157135756      -0.27775553735652      -0.36839797983073
C         0.61844940184014       0.38999568873873       1.51417563233749
C         2.84399211337388      -0.58155724371539      -0.24375984283498
H        -0.50978196795496       1.25936887357378      -1.58528469816384
H        -0.15669425031990       2.27380126496810      -0.15963554370527
H         0.46003308449739      -1.94589302413526       0.26119008789491
H        -0.10840355895109      -1.36222960671744      -1.33170104607611
H        -2.59447673381077       1.86853142580277      -0.54871680246647
H        -2.08614171497214       1.30248934180198       1.06366406166423
H        -1.65789318145631      -1.31944885257575       1.33969519264726
H        -1.95587641436596      -2.34643740824919      -0.09408750888851
H         1.57421295822839       0.25620364377027      -1.76132901662424
H         2.09765942254550       1.41754701524089      -0.51663543240818
H        -3.53228240197329      -0.39488188570013       0.03250754845563
H        -2.54531193031840      -0.39914094117586      -1.47346130275161
H        -0.33480913548232       0.40932981665218       2.07701079559982
H         1.21260017946201      -0.44068999975314       1.95094069890509
H         1.14598394944495       1.34726498300501       1.72341900091325
H         3.72721387304765      -0.39639379994201      -0.88829787286721
H         3.16041334098409      -0.40527686144305       0.80420345230351
H         2.56069870066130      -1.64245794313142      -0.38663575985987
S         6.51413559527029       1.19397345068982      -1.61777505167151
O         5.10999877769950       1.71189551944845      -1.96296269186116
O         6.72591539028747       0.05853136273684      -2.62990248125335
O         6.29531229863797       0.44477381142632      -0.29521704837194
C         7.81804181077915       2.45474892407926      -1.58273362812964
F         7.51708463597754       3.40165465817917      -0.62219200691063
F         7.90356907752463       3.06440333792564      -2.81997352633377
F         9.02674419190788       1.85797323401556      -1.27841407020139
