55
C15H29F2N3O4S2 optimized with ForceField in AMS.
N         3.02540064959584       0.91172062880053      -0.01162197207947
N         2.88550526366789      -1.30060711063891       0.18579432705496
C         1.45541396819329       2.80527326638031      -0.23366863338260
C         2.82056081069637       2.32858800409305       0.28562778481270
C         0.97899494564667      -2.62030626428216       1.04400194249117
C         2.48042274877236      -2.60318251426665       0.71409549877232
C         0.29383308726215       2.10964632879871       0.49212238322490
C         0.11631007334729      -2.30361162486117      -0.18784854895885
C        -1.06252473025149       2.55291415647643      -0.06506960932005
C        -1.37598382504308      -2.29374190115761       0.15879708534493
C         2.83321016858146      -0.11992469677124       0.83400998199616
C         3.21251541455869       0.36559677936157      -1.23001086249804
C         3.13282666708364      -1.00548093330613      -1.10654811895152
C        -2.20759329730900       1.86475634442231       0.68770630460633
C        -2.20634366875611      -1.79907987183120      -1.03260859478907
C        -3.55841520589235       2.17748038786919       0.05290435463159
C        -3.68913026309227      -1.72453557253051      -0.68335295307129
H         1.37912489566572       3.90302295752110      -0.07499736162587
H         1.38851362637168       2.61256155093316      -1.32670736390001
H         0.77288094376342      -1.87843936705247       1.84620404709579
H         0.71029882994374      -3.62648889952460       1.43296595429505
H         3.62734575355298       2.92307526041559      -0.19475373517785
H         2.88409472506203       2.50211126349066       1.38244975390873
H         3.06393943607957      -2.82343298118353       1.63378663695620
H         2.70375567922969      -3.40198230913836      -0.02692700980303
H         0.34552770260408       2.34422132098361       1.57797671175413
H         0.37921746931326       1.00997718521466       0.36532769497393
H         0.30761778121854      -3.06013488305959      -0.98015144300281
H         0.39214608692597      -1.30377409510841      -0.58477588124878
H        -1.16618545200391       3.65559174441307       0.03576653077959
H        -1.11571950718411       2.28805045678641      -1.14429374853611
H        -1.54831216917697      -1.62365843605264       1.02923972915139
H        -1.69665474438232      -3.32159905159861       0.43681218969742
H         2.56364680586267      -0.00946203920415       1.87724075453483
H         3.32955100224547       0.92349774601965      -2.14995222136612
H         3.16396924636532      -1.72591575580230      -1.91355475989691
H        -2.05717500048507       0.76520544370754       0.67806068846433
H        -2.21592018039608       2.20465418638284       1.74608286947149
H        -2.07104966886375      -2.48764484524565      -1.89483302626403
H        -1.86216769368908      -0.78628617057630      -1.33717448454238
H        -3.74990019157205       3.27120686352228       0.07241042900494
H        -3.58303553388025       1.81649651267172      -0.99747664150699
H        -4.36247348046183       1.66403518773050       0.62116321575699
H        -4.25590651067142      -1.33592891852247      -1.55556124232325
H        -3.85072612094571      -1.03985523103672       0.17600930232873
H        -4.07537535837747      -2.73346028262043      -0.42663443911550
N         7.15463575503789       0.92502358714810      -3.51621444411982
S         7.35151829428025       0.03317720159851      -4.87366345034938
S         6.97849473464459       0.21895781322053      -2.05078325633552
F         5.87655517784276      -0.62190399417700      -5.31834940054337
F         8.48600235596554      -0.21115754180589      -1.46473460666032
O         7.86190398748310       0.90959623067449      -5.98188439668171
O         8.32512668572462      -1.08376946396188      -4.62051365410355
O         6.13184519819309      -1.01712580015998      -2.16939435644039
O         6.33634672585271       1.18845410904005      -1.09975017931401
