29
C7H16BF4N optimized with ADF in AMS.
N         1.19816454927644       0.05069386629371      -0.14948740846348
C         0.49645092430025       1.32646175561781      -0.60556995500819
C         0.28413290290472      -1.13270357878333      -0.37368509697081
C        -0.85480220474138       1.51251079266694       0.05815284100556
C        -1.06854286919177      -0.97534322505979       0.30112743059609
C        -1.76519757490644       0.30530384113367      -0.15964369464870
C         1.60183409054283       0.13843276209609       1.29578959773891
C         2.43718133374091      -0.13453885803633      -0.97802025850141
H         0.38453684841261       1.21648736306555      -1.69661741567028
H         1.18586728755107       2.15687467923193      -0.39935266694684
H         0.82694394431208      -2.02208567754103      -0.01875418428251
H         0.15987230143046      -1.21143930359545      -1.46579017327108
H        -1.29823179885019       2.42444153074338      -0.37516830354148
H        -0.72526108786798       1.72539711593971       1.13231011005950
H        -0.95304207557159      -0.97856777126661       1.39793035494929
H        -1.66770635567656      -1.86608183502036       0.04853045964543
H        -2.72102718261552       0.43311091489120       0.37292558550339
H        -2.00400153355056       0.21905630692720      -1.23612173147838
H         0.71606688952922       0.31907569275249       1.91072923708165
H         2.06321102696916      -0.81934805228785       1.57093859929561
H         2.31927599733633       0.96240276453156       1.40603453871763
H         2.13431022214779      -0.23972446117405      -2.02737319950974
H         3.08309104837413       0.74391083241817      -0.84567802446542
H         2.94579887541123      -1.04453891817129      -0.63396501655596
B         3.50267372873215       3.09201751504001       0.35950205601271
F         3.11794697468978       2.95597699578613      -1.02048451928097
F         4.15556420113079       1.86652267975065       0.74419266885485
F         2.29185035239622       3.19308171966560       1.13594874281188
F         4.32506543348379       4.19274262738433       0.55516591042277
