40
C12H22F3NO2 optimized with DFTB in AMS.
N        -0.61109043915663       0.24424865137816       0.30792879144904
C        -1.63495096673697       1.17295398502300      -0.27971005131584
C        -0.91914482219664      -1.16997550203840      -0.08942325595468
C         0.72270731862700       0.64935109071564      -0.25707502516849
C        -3.06731640085141       0.78440388983421       0.07091071986947
C        -2.34279547404194      -1.58833391511600       0.25532787877943
C        -3.36219445036747      -0.64526410177013      -0.37575544646441
C        -0.58814176052748       0.39181709438376       1.79265071718575
C         1.91527636764958      -0.12212862615317       0.30436602309227
C         3.20438350141918       0.37983671810029      -0.35869201348226
C         4.42278666229661      -0.36248562847803       0.18570718370095
H        -1.49922772612810       1.15548038676454      -1.36535982726383
H        -1.40635577511935       2.17508624859874       0.09041357032667
H        -0.20807743972798      -1.81620434826887       0.42738425805231
H        -0.75164360265019      -1.24182756631140      -1.16863731468134
H         0.84072711578715       1.71518786523266      -0.04278607501680
H         0.66742553824499       0.51725327979760      -1.34163181275055
H        -3.72937177427384       1.48581502025653      -0.44331796189411
H        -3.24420385620105       0.88244772239401       1.14433962578920
H        -2.47690230726816      -1.61316833190612       1.33732773215766
H        -2.48351165949026      -2.60366044668716      -0.12380917852917
H        -4.36838065252521      -0.92795877398211      -0.05963322261099
H        -3.31303931191195      -0.71188597306249      -1.46811986500059
H        -1.59594549337305       0.32408800425525       2.17970192071175
H         0.00870814999243      -0.40043326906002       2.23094983628250
H        -0.16990087326797       1.35924287209092       2.05471618190108
H         1.80527491550867      -1.19229313390724       0.11182546484857
H         1.98804506686098       0.02447901289827       1.38412670388697
H         3.31488180347070       1.45273132725207      -0.17050714707652
H         3.13827183174258       0.23362357751773      -1.44209430118816
H         4.33804274068042      -1.43186071816527      -0.01005156409779
H         4.51227798204725      -0.21122919526617       1.26163913239290
H         5.32714566743420       0.00933999760042      -0.29503766028862
C        -1.43516601581518      -0.24449851068363       5.06108687809728
O        -0.68286636146932       0.43155886884024       4.36666865299811
O        -1.71895815779643      -0.30654817301472       6.23103117054591
C        -2.28020086762628      -1.33863863656892       4.10463595241481
F        -3.00379771311434      -2.26593856583403       4.73256810843337
F        -1.44351230639015      -2.01569320865502       3.25620284908931
F        -3.14631110053442      -0.68778076720515       3.25917003037884
