55
C15H20F18NP optimized with ADF in AMS.
N         0.35884936931911      -0.67363066108581      -0.74465054881984
C         0.54422943243727      -2.05096972997546      -1.36188012442223
C        -0.95873485563058      -0.82884705006478      -0.01712270720946
C         0.07233450331518      -3.03034718611366      -0.29016679392212
C        -0.91774236621677      -2.22962833719750       0.59690045195821
C         1.45982450536089      -0.38476756489109       0.26401706838423
C         0.29137980069796       0.38641375781940      -1.82637546821688
C         2.83472723725324      -0.13825581706905      -0.33105032448933
C         0.09423465146070       1.79499942131914      -1.31085412081405
C         3.85980621612963       0.02173303110136       0.79088812176236
H         1.57899640323308      -2.17248603790364      -1.69154845433561
H        -0.09770548481457      -2.07097320843636      -2.25314479767164
H        -1.74049055233775      -0.75113488127954      -0.78768652023821
H        -1.08081319023569      -0.01259860318894       0.70565853022799
H         0.91742776187631      -3.40941492590034       0.30276086612973
H        -0.40199689592029      -3.90068070427776      -0.76481147740410
H        -1.92559317466463      -2.66812966142657       0.59897399947550
H        -0.57657809581450      -2.19545573494416       1.64181465964425
H         1.48397505819795      -1.24921597589815       0.94376826587128
H         1.11991087013932       0.48573837405927       0.84542904223567
H         1.21446890971404       0.29235451825375      -2.40625251126260
H        -0.53801167540896       0.08214022960186      -2.48141220230197
H         3.13715563211440      -0.96599996100197      -0.98613028745847
H         2.83313380963895       0.76228854421865      -0.96180424818387
H        -0.85054225006173       1.92340637105940      -0.76187548543156
H         0.92841387105651       2.13279257009889      -0.68045393220575
H         0.07027813515460       2.45872587019818      -2.18810204862364
H         3.60594556058377       0.86281631239426       1.45572046757928
H         3.92933769276664      -0.89056903884656       1.40384860012460
H         4.85298535950269       0.21577203919783       0.36258278478629
P         3.55181729518260      -0.74457313624118      -4.72602270527477
F         4.78089161908723      -0.17550100594801      -3.75444571797573
F         4.43385231714496      -0.43142057167594      -6.08561417274947
F         2.55917853782979      -1.07520317010284      -3.36809329156291
C         4.43059533041850      -2.50984383335103      -4.44656834718857
C         2.84211624591606       1.11840653333905      -4.60693815539530
C         2.11528674877782      -1.40083631203617      -5.97456886236457
C         4.57574145149117      -3.05025467591803      -2.97874753263446
C         3.43734712598562       2.21023849054635      -5.54104229302083
C         0.83977892702543      -2.10190661872743      -5.41887805989730
F         5.71368939983687      -2.42612517351537      -4.93057101542912
F         3.82909303002392      -3.57039980529123      -5.09212901720747
F         3.07801736360167       1.59926622198022      -3.32086522268249
F         1.46748319101191       1.19013329055211      -4.74842733123358
F         2.65581476909139      -2.28485210866645      -6.87582140644423
F         1.64087437072667      -0.35144036647338      -6.73384522834357
F         5.41884793473112      -4.11704123227647      -2.98168285858974
F         3.37481713751747      -3.49827003276691      -2.49743269944038
F         5.05971483019058      -2.15516218952705      -2.08822936179278
F         4.77160337344773       2.32126364719040      -5.36587440625155
F         3.18039711453862       1.96154204142711      -6.84113719100525
F         2.87491168797509       3.41999722415017      -5.23416848224031
F         0.06123196883487      -2.54076876311155      -6.44227690273366
F         0.07467500182059      -1.24665628786697      -4.67684576296180
F         1.13283365494552      -3.17055292881008      -4.63820425334822
