30
C8H8F6N2O4S2 optimized with ADF in AMS.
N         1.51700569069571       0.43832498229613       0.02658514397229
C         2.18719845457646       0.81240329658138      -1.08537272794204
C         1.30717001780446      -0.86594683927339       0.30383744367192
C         1.03077461093908       1.48182294879522       0.94831299070080
C         2.63652368584818      -0.13598571704535      -1.98273083907894
C         1.73872561008705      -1.84864678624650      -0.56380249181624
C         2.41225998758148      -1.48314478714722      -1.72402641333185
H         2.36249727123323       1.87827472427414      -1.20509274676169
H         0.80363165197378      -1.08240328766958       1.24303332977295
H         0.78621039807654       1.02015249986136       1.90968305205514
H         1.84296140402735       2.20572163122375       1.08730426788812
H         0.14002173176030       1.95114115656817       0.50908265453545
H         3.19588400926506       0.19022341241571      -2.85823263715509
H         1.58075218369966      -2.89383324791657      -0.30047124561770
H         2.79122412272601      -2.24568338540672      -2.40561523662424
N         6.04054770172174       0.70835100620320       1.46466764058730
S         5.67411636427921      -0.64099709529392       0.67364340536100
S         5.01728433718566       1.91921674611928       1.67493006709254
C         6.18830190442694      -0.26448004460913      -1.10929805347850
C         4.04946801104742       1.44514698883986       3.23525098653897
O         6.60018651163914      -1.68473743450274       1.07672766835863
O         4.24619436071072      -0.94916147021777       0.55749064141331
O         3.95654070674753       2.06404110674258       0.66388156092291
O         5.76029123065096       3.09757583002361       2.08381609436755
F         7.52149499651616      -0.12088110502762      -1.21864876648437
F         5.59166585050204       0.86336993589318      -1.58272216697343
F         5.79838640372457      -1.29934799237845      -1.91245904385271
F         3.16904457429736       2.44409357142973       3.53392653965172
F         4.86505106352426       1.26444106542292       4.28955640191617
F         3.32128303533192       0.30698992984475       3.05099698061004
