61
C17H24F18NP optimized with ADF in AMS.
N         1.13163772239683      -0.14104678220354      -0.14690877093532
C         1.63188293991013      -0.76134265382816      -1.44324261870808
C        -0.36378849768751      -0.36384777428694      -0.23889885389253
C         1.69737757044167      -0.84987908128464       1.06174655673906
C         0.57442686108296      -0.41151495969244      -2.49245830463314
C        -0.71852393811004      -0.09214572207170      -1.69817524094860
C         1.45812878224376       1.34660272407804      -0.15000060139622
C         3.20976988592610      -0.81698137253763       1.16932274188354
C         1.10668585693720       2.09638737272247       1.12185263960279
C         3.67029354575147      -1.68787141130300       2.34334047835021
C         1.26810305688123       3.59819667500707       0.87042896048139
C         5.18893328954863      -1.84244774118391       2.38539195938544
H         2.63261411156108      -0.37769669568840      -1.66671864720802
H         1.68463006177882      -1.84485611864668      -1.25733234414922
H        -0.52917424763281      -1.41996604695990       0.02240584801861
H        -0.87643125611786       0.26959670048418       0.49522749443164
H         1.34415036781040      -1.89070476253413       0.97858535474169
H         1.21675348001072      -0.40201718223442       1.94547951580505
H         0.89867687621880       0.44619858213920      -3.09522272395409
H         0.43930881229722      -1.25987010161588      -3.17792456568947
H        -1.56740754806713      -0.72101656153060      -2.00207266826072
H        -1.02338758813112       0.95410408838243      -1.84455060027914
H         2.52937227028017       1.43042992240138      -0.37033860428764
H         0.92197253321506       1.76750557288716      -1.01117434095532
H         3.66708023852400      -1.19339617189474       0.24074846116290
H         3.57820342677292       0.21121197047056       1.30002660344271
H         0.07293281137842       1.88791976737478       1.44781143082904
H         1.77833237740940       1.79117876272250       1.94098563476793
H         3.30930196423280      -1.25115354831626       3.29219494720795
H         3.20329880548585      -2.68700268227519       2.26112025127059
H         2.27835032630590       3.82651174539753       0.50252782928045
H         0.54718980185269       3.95108136284281       0.11693977887399
H         1.10126057756101       4.16572927918032       1.79696082574411
H         5.49378004129162      -2.48526208948682       3.22416835953772
H         5.56153875868055      -2.29425565922619       1.45335085573394
H         5.68562433483851      -0.86839108200282       2.50076081738742
P         5.30693848065274       2.03711904780383      -2.23404091151290
F         4.43373474300112       3.39274876717633      -1.79447490034205
F         6.18383429973008       2.90260834124112      -3.33253744015065
F         4.41403974063134       1.05907845398403      -1.13936590439154
C         6.49953678611844       2.59229366519081      -0.73670789549320
C         3.80911479676389       1.72218981147989      -3.52389202090754
C         6.37488685578378       0.43585642848532      -2.81247073189772
C         5.91302331661251       2.60941128146411       0.71824379964730
C         3.83448162354309       2.45548031464681      -4.89406807285398
C         6.26301216894237      -0.89921616252674      -2.02023530996749
F         6.89833743505562       3.88348361487395      -0.98810053054805
F         7.64916597266573       1.84612836214459      -0.58885902328431
F         2.61910902950628       2.14917041330971      -2.93328647537269
F         3.59102261826135       0.38386998968961      -3.79612393343047
F         7.71146867271319       0.75028910025525      -2.82441587563630
F         6.06671826932496       0.10637285037746      -4.11695565683388
F         6.75442438833327       3.30433604221970       1.53047534627378
F         5.82141664269135       1.34763813302863       1.22118232333593
F         4.68818123993372       3.18194097929118       0.82655476749685
F         2.67530049560299       2.17917531484177      -5.57377469333747
F         3.89639706341135       3.79345638420698      -4.72192731056601
F         4.86206152081497       2.05784404263904      -5.66924538371143
F         7.14194580311274      -1.81226139283413      -2.51434526426839
F         5.01675846758375      -1.44818171786997      -2.12746690548950
F         6.53423943992990      -0.73810301900575      -0.70471338653893
