49
C13H21F6N3O4S2 optimized with ADF in AMS.
N        -0.50959490716213       1.84677726658040      -0.54163722337272
N        -1.37177459375411       1.77397918504479       1.44918921463844
C         1.71152689712742       1.39385200116246      -1.56241808338021
C         2.16270941274520       0.17312151878672      -0.76573267832195
C         0.19983798810844       1.45725245618497      -1.76982686971643
C         3.66927468235193       0.15999007458660      -0.51671478713979
C         4.11057120547532      -1.00583732504447       0.36640275588666
C        -0.87564261399187       1.02814152466975       0.45578448666981
C        -0.76856351110466       3.14916466996832      -0.15765823547735
C        -1.30888337898124       3.10217062819636       1.09385120373293
C        -1.87759621231053       1.26405312924176       2.72871093767937
C         5.58686125435730      -0.91693462431742       0.74443576783734
C        -3.38609664575755       1.07703824874395       2.68047792566666
H         2.18017428463238       1.39152380592493      -2.56277935032531
H         2.04217048529662       2.31320002802757      -1.04778468335242
H         1.85737719616572      -0.74935419365067      -1.29794559355722
H         1.66906196871611       0.17110647113690       0.22018041300286
H        -0.07754640099874       2.20009431060245      -2.53184976580350
H        -0.20306824469769       0.48304922687785      -2.08859367082669
H         3.94250634674207       1.10582694286698      -0.01864321336903
H         4.21349238603299       0.12800721649462      -1.47968514928792
H         3.91088121371213      -1.96204239509058      -0.15296508820677
H         3.49601757878531      -1.00647234932468       1.28418133678904
H        -0.75114998052682      -0.04632972593659       0.47321679457810
H        -0.50610612982943       3.99153032389771      -0.78438073968712
H        -1.56993895730689       3.89209737687708       1.79188897367827
H        -1.33651599382809       0.32911646967552       2.93339080686460
H        -1.55880789136697       1.99170881810121       3.48911269845503
H         5.77814430827567      -0.00413289333912       1.33123736522326
H         6.22554111366918      -0.88082547941449      -0.15299574312442
H         5.90125150363680      -1.78036647352375       1.35035149068658
H        -3.89333775354266       2.03119884780350       2.47382691587878
H        -3.74559837960874       0.70010813899555       3.64871523166848
H        -3.67129905877158       0.35514252323730       1.89979928047267
N         0.79081177419401       3.00538202990890       3.15594145686300
S         1.96500584797803       2.05540267121672       2.64514361027155
S         0.85763224381039       4.54213782435503       3.63051902580475
C         3.23421525665810       1.82157461773836       4.02847535617232
C         1.58380236022880       5.59802242988063       2.23174605734648
O         1.37350561724429       0.71882678113170       2.50738884651593
O         2.74329773784443       2.59513351014864       1.53092685610845
O         1.75525192658881       4.79016882912525       4.74783739130370
O        -0.53795470678853       4.98388703547252       3.67543985959150
F         3.99613369613144       0.73647532387912       3.72994318059577
F         2.61930944188841       1.60407005722506       5.21028816550762
F         4.04073450866239       2.89473265747141       4.13450014363655
F         1.34771362614250       6.89895969863776       2.52655052971125
F         0.98133432438247       5.32470859945930       1.03850389950070
F         2.90924183974360       5.42100594950614       2.09448922301043
