47
C15H28N2O2 optimized with ADF in AMS.
N         0.78200703832120       2.48891920656381      -0.64142304641739
N        -1.27148353127747       2.77975570107351      -1.31208236960397
C         2.04373043020137       1.86945986949840      -0.22032541813700
C        -2.69060931148250       2.53521757691928      -1.60617495423965
C         1.95792382711984       1.17456789388435       1.14314176030869
C        -2.95972235175371       1.18017829407547      -2.25337290136829
C         1.57294721721952      -0.30053083269415       1.05857111199925
C        -3.17660830991515       0.04524269046092      -1.24914184861012
C        -0.34281111953744       1.85315760357598      -1.02545092960963
C         0.50699397586951       3.84352404520031      -0.54860224697296
C        -0.77721259293442       4.02000525968477      -0.95747805419342
C         1.37015373315834      -0.92891456094703       2.43500230153250
C        -3.30689924934555      -1.32165961287864      -1.91401373188304
C         0.99452209804145      -2.40610658468172       2.35040325165241
C        -3.55860312603813      -2.43579222304380      -0.89958712741804
H         2.77688357744551       2.68911621977121      -0.20298386726966
H         2.35963781875948       1.16709026819888      -1.00938755238136
H        -3.00441748577321       3.35894026546986      -2.26464737197636
H        -3.18082557996760       2.62232002143532      -0.61307558504145
H         1.21143737596059       1.70741445832879       1.75530126716473
H         2.93968766300449       1.27277910314720       1.64038434489222
H        -3.86567069739436       1.28587339389155      -2.87657311374498
H        -2.14558776252844       0.93439449407647      -2.96199435724232
H         2.35340555046409      -0.85544372531616       0.50154915952975
H         0.62153894012631      -0.39215878593427       0.51078722964739
H        -4.09525802085535       0.26497886712069      -0.67331386214336
H        -2.37088316154563       0.03657809155780      -0.49375343876285
H        -0.41962464564427       0.79784747188290      -1.23233241894286
H         1.25018778731233       4.55405859744093      -0.21055367787184
H        -1.38800639502226       4.91100316034276      -1.01322178856046
H         0.56349222013252      -0.37260096343141       2.94248617699681
H         2.28774232300372      -0.80794577508967       3.04096686973680
H        -4.12719228191396      -1.30091150626573      -2.65634290309893
H        -2.38458504413511      -1.54349514224578      -2.48482427707592
H         1.77626640533308      -2.98807079809397       1.83504244989090
H         0.05352668207535      -2.53211622198695       1.79128344656722
H         0.85220037289330      -2.84385034421824       3.35092980791261
H        -4.49188863260374      -2.25416925214072      -0.34263760651673
H        -2.73957837458086      -2.48421871662354      -0.16421835304450
H        -3.64045844298435      -3.41950323591639      -1.38800791660273
C        -2.12171213857783       1.35805398705433       3.25183442967452
C        -1.96902642156758       1.74925339133275       1.77482833998883
O        -1.16303825906243       1.00756831797562       1.10871824013266
O        -2.63707917858921       2.72668266921098       1.35114933727658
H        -1.13560976826433       1.30349049486182       3.73826406461231
H        -2.76072208901080       2.07398856691473       3.78545881744926
H        -2.56763547793631       0.35289453585677       3.31412211516437
