28
C8H18ClN optimized with ForceField in AMS.
N        -0.38169814579862       0.37702470833489       0.05838150593855
C        -1.40740558192618       0.59530674830301      -0.99892944295555
C        -0.85347484851075      -0.80681357597271       0.83559670139099
C        -2.66873798274097      -0.12507832505557      -0.57073639593677
C        -2.15284131995662      -1.30052315535145       0.21529325388200
C         0.94168317396891       0.12079977764498      -0.58939168994509
C        -0.32334057310775       1.58109921646227       0.92844421535050
C         2.13269690288410       0.03114588464293       0.39200528523996
C         3.38139360239617      -0.48994472471543      -0.31486574568385
H        -1.09456390300985       0.15918148242308      -1.97702733946443
H        -1.62013540744145       1.67310341617704      -1.18722489913144
H        -1.05074474294932      -0.55667606930454       1.90408093115117
H        -0.12123343885253      -1.64443365097906       0.83926475286660
H        -3.27630636854487      -0.44970607406198      -1.44354887499476
H        -3.27731743168293       0.53359835790640       0.08718137738009
H        -2.88420278831182      -1.62899497472847       0.98526550578473
H        -1.94074260379473      -2.14527172582831      -0.47774180420046
H         1.16672525624658       0.93147571483240      -1.32039135651277
H         0.89015623306277      -0.82803860476646      -1.17327184606163
H         0.10210144262861       2.44927980018357       0.37716067766747
H        -1.33850437011803       1.86277455298301       1.28740116802834
H         0.29972336628638       1.39929955016222       1.83125765397479
H         2.36501754406652       1.03968606420467       0.79559052624295
H         1.90162474045713      -0.64167669489926       1.24365691006195
H         4.23900208684096      -0.48759185267482       0.38999418726866
H         3.21626901942376      -1.52989943188369      -0.66725915193783
H         3.63245281924450       0.15617137510853      -1.18306402899569
Cl        3.42030598684002      -3.55407604294724      -3.01183538660847
