38
C12H23ClN2 optimized with DFTB in AMS.
N         0.29382579147609       2.20377061568826      -0.31717453264149
N        -1.71931629040308       1.46397589053581      -0.38509972761121
C         1.70625011734333       2.36049262584158      -0.64842033426330
C         2.56881012751415       1.43030641969073       0.21034365615343
C        -2.87879295191484       0.68324240279499      -0.80187497335977
C         2.19549449563866      -0.04082863939247       0.01030714951328
C        -2.92126995307982      -0.66090440075765      -0.06742799944249
C        -0.54798086344563       1.44756050944082      -1.01630081763594
C        -0.34810584053646       2.71052747060651       0.78242710991579
C        -1.62328100920965       2.24145439141469       0.73976246389630
C         3.17496277946653      -0.97434569883526       0.72601477106519
C        -1.69603804844096      -1.52970576844520      -0.36905533952803
C         2.77022514899291      -2.43428417254976       0.53064345569284
C        -1.83930297425291      -2.92013844860159       0.24398355714120
H         1.98293889179799       3.40540814699756      -0.48451250931354
H         1.82005262703785       2.11524743341956      -1.70740179867826
H         3.61047425131953       1.59381357326921      -0.08142466975095
H         2.46535290082057       1.70769459189181       1.26466179366557
H        -3.77748448109623       1.26714354877169      -0.58628007703976
H        -2.79846493970544       0.52723445092898      -1.88056266617062
H         2.17988251044392      -0.27315172790134      -1.05904967845483
H         1.18647546217034      -0.21090114304839       0.40012716418589
H        -3.83025119217842      -1.17683288123135      -0.39099708910311
H        -3.00000269793823      -0.48122258257383       1.00979759498679
H        -0.27668273862244       0.83176272522136      -1.89839227412266
H         0.14213369521830       3.35725278971187       1.48895951439115
H        -2.45674786037538       2.40166734579909       1.40123222549722
H         3.19491755603680      -0.73701844321675       1.79596700614643
H         4.18380800752260      -0.81858823602281       0.32936019853085
H        -1.56021192238205      -1.61598674069808      -1.45103606159344
H        -0.80285129649108      -1.04753579227355       0.03907969967499
H         2.74891354455266      -2.68296842225863      -0.53049858803641
H         1.77837481886474      -2.61402367208779       0.94825725620959
H         3.48249588303178      -3.09145420641597       1.03010636025953
H        -1.95465519888890      -2.85444709724263       1.32727985588700
H        -0.94989691557794      -3.50973086629900       0.02353300216023
H        -2.70832164513678      -3.43445826687017      -0.16837999965702
Cl        0.44229303092747      -0.53596752650231      -3.01423614747046
