34
C10H18F3NO2 optimized with ADF in AMS.
N         1.00518398862049      -0.40433388153573       0.12614219508393
C         0.57726512927229       1.05625235450354       0.04039256715670
C        -0.07981435937367      -1.28967569399254      -0.43613769090272
C        -0.77329931356401       1.31534820213855       0.68385524907538
C        -1.43627303870774      -1.05534791310469       0.21162247909926
C         2.27846506775449      -0.52211029839406      -0.71355490897386
C        -1.85885103994332       0.40897527913435       0.10569686878733
C         1.31788642908296      -0.75990718627947       1.55197750593801
C         2.90306887201220      -1.89883706492461      -0.75094770354562
H         0.53275644534610       1.28030383708879      -1.03815792880875
H         1.39712599378376       1.63417666475720       0.49906310125055
H         0.25164818567233      -2.32870239708867      -0.30714619840055
H        -0.12437408561266      -1.06631545197608      -1.51505820696401
H        -1.01483466767105       2.37618384850288       0.50642446997497
H        -0.70960273023401       1.19637717907024       1.77835967638849
H        -1.41432553860387      -1.37259753532036       1.26795416222248
H        -2.16178128052230      -1.71277847211165      -0.29542720455185
H         1.98830945915317      -0.18643928577774      -1.72194746480948
H         2.96531302687171       0.21175999574779      -0.25091664785251
H        -2.81648999897126       0.56813773185181       0.62643083779232
H        -2.02258176826688       0.66473604459751      -0.95779436639907
H         0.43176081260152      -0.58607219075476       2.16929500792016
H         1.59459038794686      -1.81925525457685       1.59308790526128
H         2.15904262771969      -0.11094668357569       1.85637670287585
H         3.79937860871440      -1.81817933118114      -1.38432438056122
H         3.25791660813820      -2.21749526621086       0.23822169186585
H         2.25235735613906      -2.67034672531531      -1.18849925377327
C         4.54921692685044       1.50302694209897       1.70625398367994
O         3.34101014564891       1.39691741745715       1.31588996377858
O         5.18181451177359       2.45546695886962       2.16567249494425
C         5.35021889786887       0.15694882344296       1.53456931213333
F         5.51351730076289      -0.15843383741007       0.19565529281761
F         4.68220939171033      -0.92501548681362       2.09177775111295
F         6.58678010042654       0.16764197768255       2.08456015518369
