41
C11H24BF4N optimized with DFTB in AMS.
N        -1.41503347427399       0.36809198489169       0.19012169607010
C        -1.67602206030222      -0.32481931002280      -1.11560939380721
C        -2.42829093712673      -0.26077480648022       1.09481402577086
C        -0.02365075276048       0.08607326528678       0.67093233256216
C        -3.19267880203888      -0.40419885172078      -1.21471400963623
C        -3.68845357190492      -0.40934577311711       0.24088720922647
C        -1.66947064788569       1.84474316980017       0.04367619222355
C         1.06157301416648       0.66661472145965      -0.23444644513641
C        -1.45317014411326       2.65464484005521       1.31124226119012
C         2.44015968057003       0.20552093759530       0.24796493855561
C         3.54037991648916       0.78316666107110      -0.64848614991650
C         4.92536304460083       0.33127619544248      -0.19057451538368
H        -1.22451840089744       0.23175381164138      -1.93507904085995
H        -1.23028648060165      -1.32037769351924      -1.05067623023576
H        -2.04194295774781      -1.23803715740189       1.39439150647662
H        -2.57173413558555       0.35172496098680       1.98390180086663
H         0.05940179150314       0.48351376463057       1.68591924016209
H         0.07502140214397      -1.00251573420395       0.72278952275426
H        -3.57754498337881       0.45910640798137      -1.76147841609758
H        -3.49184222261026      -1.30807127949028      -1.74715610801579
H        -4.19919960960337      -1.34108331994990       0.49078874875854
H        -4.38021372414933       0.41548959276531       0.42257423757551
H        -2.69589734865753       1.95764655388345      -0.30598951483179
H        -1.00635603483450       2.20793033031245      -0.74185058104576
H         1.02329859636617       1.75778519286450      -0.22786337301238
H         0.90869506019006       0.33943604367918      -1.26509967751524
H        -2.09398143294334       2.33097210278117       2.13127008340226
H        -0.41531140310601       2.62308685242599       1.63874745146342
H        -1.69978378279801       3.68974764161187       1.07604825722585
H         2.48867252988996      -0.88931125665918       0.23123084511304
H         2.59736478040283       0.53121374215367       1.28279190770849
H         3.37215047258798       0.45959425883119      -1.68020835111883
H         3.48678730132415       1.87614134997394      -0.62781616978324
H         5.68881727475838       0.75283140201612      -0.84444827380046
H         5.11993332953933       0.66410537020828       0.83027748668930
H         5.00374238232463      -0.75660920296243      -0.22161690271896
B        -0.49954317853863       2.21634236369431      -3.15090962995554
F         0.14880382581128       2.90801875965017      -2.09798648103617
F        -1.86344090655237       2.05058354851217      -2.76407074724791
F         0.06969298720117       0.91950128318001      -3.20676028800787
F        -0.39140349705874       2.87475208534148      -4.33755983213156
