48
C14H28F3NO2 optimized with ADF in AMS.
N         0.21784199124754       0.19448673267587      -0.16381882781935
C        -0.53236479292503       1.16637336293736       0.73591721829496
C        -0.70379645382360      -0.40104817010618      -1.22150683014454
C         0.76274358486252      -0.91740888918165       0.71029341073799
C         1.34901898641969       0.93423329199413      -0.87923513083451
C        -1.77997855168442       0.62441679955557       1.41385538489235
C        -1.56800529084553       0.59275938598816      -1.98188107833155
C         1.68894577784242      -1.91917752316563       0.04138098239456
C         2.33437541699865       1.65121339970825       0.02535326196273
C        -2.41434174279848       1.75593847425119       2.22713007592408
C        -2.34401035395215      -0.13305026962926      -3.08134443661833
C         2.07881814365881      -2.99896074660044       1.05185364844357
C         3.41840779245676       2.28646430798279      -0.84826678002087
H        -0.74536827656029       2.06111844232133       0.13559858108288
H         0.19604099199416       1.48576155622858       1.49415747803662
H        -1.32524074864133      -1.15044104713003      -0.70547461809313
H        -0.04462530202418      -0.93405931825668      -1.92290250445935
H        -0.11263943598099      -1.43640600032215       1.12568329989757
H         1.28395930757234      -0.42145574636348       1.54237155423118
H         0.88339506390438       1.68005266578551      -1.55043298390546
H         1.85110165286654       0.17395217079467      -1.49659315027436
H        -2.50804480443785       0.26047464902138       0.67103856782877
H        -1.54454874146356      -0.21902558096173       2.08440956091022
H        -2.28019869508705       1.08610438528789      -1.30248913113483
H        -0.95748294185866       1.39157211465609      -2.43290247789015
H         1.19818041758712      -2.38791781738837      -0.82691435276268
H         2.59859888580885      -1.41662428952521      -0.32210884821105
H         1.80842498006438       2.46887076158173       0.54213325193038
H         2.79216284828219       0.97240448037079       0.76668018540155
H        -3.33714835537668       1.41399978495297       2.71681003138496
H        -1.72474399626879       2.11237712698584       3.00829456262038
H        -2.65571740776269       2.61157642279574       1.57907481005132
H        -2.98230140449545       0.58374312162934      -3.61752130948533
H        -1.66258258038663      -0.58760228504148      -3.81761524717232
H        -2.99120395349267      -0.92810070784831      -2.67569600569265
H         2.76394141915816      -3.72824004784345       0.59709454478697
H         2.58642618312432      -2.55838710669406       1.92441282268626
H         1.19421453850557      -3.54530211119477       1.41438000202128
H         4.15285787433281       2.81442944465259      -0.22294146144072
H         3.95622912569494       1.53197362571288      -1.44497403651552
H         2.95616085188401       3.01439231668598      -1.53233251088135
C        -0.31025237600973       3.83063506632846      -1.57721749530425
O         0.16185390634425       3.92972751008669      -0.41906782862952
O         0.13045933238763       3.24386186084891      -2.59682980294758
C        -1.72292282803157       4.49881288252201      -1.72304951418666
F        -2.32995548941241       4.27325101897175      -2.92415640478129
F        -1.66910492299459       5.85135843676432      -1.54467711272835
F        -2.59238711868371       4.00284930147415      -0.76317292295489
