33
C9H14F2N2O4S2 optimized with ADF in AMS.
N        -0.58371296303788      -0.17826376813187       1.29710859239064
C        -2.22049078107506      -0.07167663412333      -0.56427887994465
C        -2.02087215863669      -0.23040758499130       0.93745990738105
C        -3.70938030551847      -0.09818462806459      -0.90664184879373
C        -3.97116806524226       0.02164925512813      -2.40511832504504
C        -0.03596206233107       0.98678999593738       1.70511784239858
C         0.16182355093395      -1.29874594975738       1.19222120644420
C         1.30910495145911       1.05969459409992       2.00599355149453
C         1.51299659069216      -1.27192825027193       1.47759767434197
C         2.09836478365711      -0.08018024509162       1.88870168650191
H        -1.69517315447746      -0.88437552953178      -1.09931357079571
H        -1.76995447528120       0.87916834575222      -0.90362763732367
H        -2.40568693580019      -1.18598782467617       1.32155859194930
H        -2.52651243423027       0.56023648915020       1.50847971449813
H        -4.15028183385690      -1.03524158528794      -0.52328743109082
H        -4.21582975200449       0.72302439449673      -0.36935556651498
H        -5.05111467088681       0.00935572564691      -2.61525263355225
H        -3.56011189905656       0.96132452986974      -2.80759072876278
H        -3.51081937206108      -0.81309841663222      -2.95736834243175
H        -0.71827864691701       1.82642210653453       1.80963530828151
H        -0.36882180814854      -2.20617540199536       0.91355446768461
H         1.72146892879042       2.00453539950457       2.35845590736787
H         2.08176590282999      -2.19859654447615       1.41794655884066
H         3.15848971042001      -0.04508052850886       2.14193053618866
N        -1.88201168912066      -1.42326814829533       3.79566367210178
S        -2.68215145104199      -0.19066128015521       4.45240098077620
S        -0.47407640042624      -1.91870629704012       4.40182574962874
F        -1.73394262689563       1.13785839915018       3.99584949050749
F        -0.86215388430157      -2.58759749611981       5.84313081930736
O        -3.88497508446640       0.00289225712070       3.66137284301907
O        -2.69487658513417      -0.11689837651024       5.89612997926365
O         0.47155770909314      -0.86069599713026       4.71818105820004
O        -0.04059767982728      -3.03781541449974       3.57590882718741
