60
C16H36F6NP optimized with ADF in AMS.
N        -0.58662375197972       0.31036245950989      -0.27805899703252
C         0.57706359642030      -0.35615613795346       0.44298152715016
C        -1.54852548536820       0.86536780617567       0.77118149932930
C        -1.26836073736027      -0.70504655160509      -1.17401050699798
C        -0.09409957546137       1.47138262190035      -1.13628229998585
C         1.47966581084008       0.57995587463228       1.22671072643001
C        -2.85694719902247       1.42216728151721       0.24014510851408
C        -1.92316809481760      -1.88731278196532      -0.47652201904584
C         0.99191888431812       1.14529101375888      -2.14738724825679
C         2.58939042991439      -0.21189226848325       1.92360864452553
C        -3.61846690990363       2.09930142179971       1.38648501368988
C        -2.57799480346222      -2.81668281939497      -1.50515553580442
C         1.48681047228207       2.45475074074707      -2.77724250343580
C         3.49359063033051       0.70504816196152       2.74529249106140
C        -4.92624988507692       2.72351170243915       0.90866004138092
C        -3.25307360429685      -4.01966245706655      -0.84933102022501
C         2.59661606228110       2.22887014023003      -3.79933855982370
H         1.14701402594458      -0.89814319789978      -0.32814946534419
H         0.12622648078925      -1.10069951424636       1.11469524133095
H        -1.00062111363215       1.66484158776053       1.28774265454835
H        -1.72887693412735       0.04383464946700       1.48199262065125
H        -0.49649703222472      -1.05752698336346      -1.87338834856288
H        -2.01508151698067      -0.14168224185893      -1.75406527656422
H         0.24549428997955       2.24907801788801      -0.44046507835984
H        -0.98345463202751       1.86604616712498      -1.64443981728888
H         0.90782597728081       1.14537446976200       1.97821849124413
H         1.93564235539526       1.33499255500631       0.56787577737229
H        -3.48739177207814       0.63149593463708      -0.20565153851892
H        -2.66313795957777       2.18594140397656      -0.52912414401314
H        -2.69373922521900      -1.54119494241741       0.23278811953893
H        -1.18020122600179      -2.46528366102360       0.09848684769904
H         0.62354030198638       0.47328811419701      -2.94317906445455
H         1.84878963745265       0.64714850329397      -1.66186055257645
H         3.19009010459261      -0.75237014806833       1.16847740861405
H         2.14060705549639      -0.97983477347181       2.58069849340370
H        -2.97055540554301       2.87909829701634       1.82051798306993
H        -3.82205828443133       1.35923680772556       2.18202676071415
H        -1.81273911055369      -3.16539387768273      -2.22236167764317
H        -3.32150816021898      -2.24683539556652      -2.09102529015984
H         1.83613240936385       3.12382617730538      -1.97255333226079
H         0.63575394641416       2.97079203917604      -3.25647570735863
H         2.91450779348638       1.23147850844606       3.51895692189813
H         3.95780653437479       1.47173513472058       2.10662556105464
H         4.29631715524694       0.13832592080168       3.24094265660229
H        -5.59759821667749       1.96847517919268       0.46853155063798
H        -4.73053394648443       3.49581184840970       0.14867478810642
H        -5.46020590711460       3.20628794473229       1.74091327825046
H        -4.04396545753809      -3.69827131099679      -0.15363805180726
H        -2.52615293145262      -4.62003364176970      -0.28026394412337
H        -3.71560214184984      -4.67749092643680      -1.60051042365684
H         2.25069582461665       1.60287753600443      -4.63752509264145
H         3.46560127754468       1.73126831156317      -3.33908906556790
H         2.94563206207268       3.18542001966330      -4.21724141848962
P         0.03961955580513       4.68087336393826       1.35852465127641
F         1.16208815413921       5.23780642230016       2.40867373232652
F        -0.14455113225633       3.29256082592522       2.30017626063788
F        -1.17591081856354       5.39557372912170       2.19483240034760
F        -1.08496124450597       4.04055012784142       0.28651069496609
F         0.21812439139886       5.98777018714267       0.39040799946293
F         1.24331426684088       3.87594898225898       0.50048941706445
