42
C10H22F2N2O4S2 optimized with ForceField in AMS.
N        -0.88403194433573      -0.17841399945681       0.03361406612818
C        -2.01648762240125      -0.27304276517775      -0.93948287773379
C        -1.22469404625456       0.98519737068903       0.90826969292729
C         0.39105497752367       0.08597309623172      -0.70939250926969
C        -2.87624678686289       0.96785673782125      -0.78891330954288
C        -2.66841330983516       1.36543995321752       0.64423529426050
C        -0.81136784432306      -1.42181311902401       0.86782859932938
C         1.64751034289991       0.18674177132450       0.18898007143631
C        -0.43534269090440      -2.69420169344938       0.08764308032277
C         2.86373854506985       0.64707321421832      -0.62345577309542
C         4.11191675515023       0.73077765152758       0.25062328104658
H        -2.67617527855664      -1.14774523722954      -0.73485294521298
H        -1.68246309176404      -0.37455555674211      -1.99735791388671
H        -1.07962230239828       0.77986158966867       1.99312185314190
H        -0.60761869672609       1.88305087737224       0.67255002018055
H         0.57037979685373      -0.70623774785775      -1.47007434818729
H         0.29329165093093       1.03433549362717      -1.28811954811464
H        -2.50260169076326       1.77143012055619      -1.46218724493534
H        -3.94749391103095       0.76409000084601      -1.00558212335480
H        -3.34129342425514       0.77281634339123       1.30288337355081
H        -2.85026043152996       2.44958269274223       0.80078687255455
H        -0.08186446210448      -1.29970752328056       1.69850293518949
H        -1.79315381439342      -1.60290363132997       1.36377359335284
H         1.47714021275038       0.90301518398248       1.01985007298094
H         1.87998902736893      -0.80603115087210       0.62776422471120
H        -0.56324416183591      -3.57723496240242       0.74864073431743
H         0.62683941334987      -2.66955019728442      -0.23064262720412
H        -1.07974781303667      -2.83501115412024      -0.80348594977039
H         3.05366878489913      -0.06951548272268      -1.45241214654413
H         2.66658300566945       1.64950360424002      -1.06210983503444
H         4.34465443058113      -0.26350221783893       0.68794405142098
H         3.95993001119729       1.46603610431221       1.06944609846627
H         4.97480448799678       1.05857765202352      -0.36623663388755
N        -4.78978287941970       4.31844017417271      -1.68952253033486
S        -3.69828950518425       5.46083414862507      -1.26454656159555
S        -5.88210450848150       4.59027640602742      -2.87723353785317
F        -4.47402537901122       6.67692443021960      -0.41550491873388
F        -5.11173949487621       4.52392543680302      -4.36164789311138
O        -2.63665949205569       4.84793599224705      -0.39666398206387
O        -3.06856264709977       6.05188660597961      -2.49475833736458
O        -6.49690948622992       5.95179626330313      -2.70910785628299
O        -6.95425824137113       3.53911537731916      -2.82604832750356
