26
C8H15ClN2 optimized with ADF in AMS.
H         0.93196241759350      -1.51834305060997      -4.42632281569596
H        -0.65856494276560      -0.69769791589808      -4.48569136150322
H        -0.42511284773283      -2.09558870350054      -3.36193394293983
C         0.05634432442738      -1.22198897093366      -3.83798492948439
H         2.52374129530892       0.81914573825563      -0.47201479189637
H         2.64013962673364      -0.50214353249975      -2.91101676174210
H        -1.42285800208361       0.19611070567304      -1.90418727300147
N         0.49093927180848      -0.34303488591749      -2.76392942988381
C        -0.35255306975307       0.09398672601651      -1.79871262919253
N         0.39667502374866       0.68991351892466      -0.84512756471420
C         1.73654161354540       0.47864147566864      -1.13194758431242
C         1.79325579077041      -0.16740402776421      -2.32686109050865
C        -0.12930861624975       1.18347367800575       0.42748847104090
H         0.42875522277092       2.09808901684187       0.68903919503526
H        -1.17789573365863       1.46957421798137       0.25070564273325
C        -0.04812052609297       0.12284525173269       1.52079844364524
H         1.01111883420571      -0.13375574696331       1.70680019996621
H        -0.54159583752824      -0.78984974037866       1.13612779046010
C        -0.70337015635466       0.59606508247018       2.81548699409819
H        -0.19869763309852       1.50805102398604       3.18814605763861
H        -1.75264778647053       0.87878479529335       2.60922612510520
C        -0.67523306297798      -0.48972112522005       3.89031201550096
H         0.36059867636965      -0.79000644366028       4.11758426527877
H        -1.21526198204980      -1.38499414048563       3.54429354130804
H        -1.14247363812881      -0.14310877828804       4.82450735707294
Cl       -1.31771261503768      -2.13670978443006      -0.89370597100873
