51
C13H24F6N2O4S2 optimized with DFTB in AMS.
N        -0.75910637084556       1.51790371270257       1.34351796394729
C        -2.00383613049768       1.18951404865544       0.57279627745844
C        -1.25719126916330       1.58331362087600       2.75853685554073
C         0.25008723531600       0.41085572980277       1.24023042614686
C        -2.77033239742863       0.19842135742912       1.44330278834795
C        -2.28154133191903       0.45815534883339       2.87652986133519
C        -0.20304735561962       2.83462217066654       0.88189082005709
C         0.90904693727097       0.25930618708178      -0.12983022611105
C         0.95093275691099       3.34154333203161       1.72890658720842
C         1.75107387594066      -1.02263653063857      -0.14913400079720
C         2.45239125997456      -1.19853652091258      -1.49987975745572
C         3.28988464876580      -2.47540704237603      -1.52624680827602
H        -2.56841227724243       2.11732484022541       0.46144679715196
H        -1.74271329855822       0.79984113383894      -0.41017800496422
H        -0.41990466329846       1.47770246611412       3.44775542557956
H        -1.72423701602431       2.55770764431663       2.90171605148461
H         1.01508498399057       0.59849520176234       1.99740231513868
H        -0.26739640231195      -0.51459329452275       1.50236885877753
H        -3.84177951156659       0.37943959281883       1.35049433564663
H        -2.56975973234379      -0.83184898164591       1.14115740309813
H        -1.83112811309608      -0.44054384108166       3.30382049978061
H        -3.10027828315564       0.77122974097025       3.52489968773831
H        -1.02322266253638       3.55131588169939       0.91943980906783
H         0.09686219362470       2.71049383749286      -0.16050084658056
H         1.55753217969402       1.11397295978884      -0.33786302625062
H         0.15401343654846       0.20561264127914      -0.91849116073184
H         0.63488097914677       3.49973640820938       2.75828493173259
H         1.80568670868998       2.66671302131545       1.70951581160899
H         1.25968635814023       4.30407976982965       1.32212130767467
H         1.10508610609892      -1.88562651876996       0.04441283438247
H         2.49858291215777      -0.97779988445723       0.64998239002985
H         1.70146889337193      -1.23692141519969      -2.29594583389899
H         3.09733622213445      -0.33404372679147      -1.68887077827211
H         3.77868239390391      -2.57854911192525      -2.49477444374616
H         4.05637069480563      -2.44616552793407      -0.75085594651669
H         2.65959369911226      -3.34979193227272      -1.35956233735416
N        -3.95029108300722       4.73221637485422       3.49355793317992
S        -5.49329037036838       4.67896967604807       3.00974869429981
S        -2.87601170961619       4.89719725903116       2.33906414181177
C        -5.72638577301212       2.96311182551610       2.27275537295987
C        -2.85615204412042       6.65857333102221       1.67324128066482
O        -6.30000881291090       4.65661579176347       4.19537692037291
O        -5.82454073856987       5.59330378485578       1.94942385501959
O        -3.09269262643555       4.07424705198056       1.14994083668243
O        -1.56618750713560       4.75400435542175       2.95402532276376
F        -6.88401831999061       2.45628774443558       2.66067374584492
F        -4.75534118843394       2.14690295886512       2.70909565119613
F        -5.68784740271602       2.97064530895466       0.95240751948716
F        -1.60292277448588       6.94917166754611       1.34062342316518
F        -3.26159890565408       7.50864766836323       2.59657075903673
F        -3.61113956613421       6.77050238572940       0.60088941123595
