37
C11H23NO2 optimized with ADF in AMS.
N         0.60501965926730      -0.03475151580341      -0.28124045175750
C        -0.13590786393213       0.32201675413435      -1.56298845061158
C        -0.41840261155970      -0.41424816314303       0.77729312572975
C        -1.18399206422294       1.39681412566127      -1.36629426165339
C        -1.49338861606065       0.64134116603446       0.98008898619968
C         1.45028081970859       1.12222615080430       0.24252803577411
C         1.46709452113160      -1.24094572931578      -0.60510780963446
C        -2.21309472345809       0.96548062767192      -0.32593705831448
C         2.45113360297254       1.66639404769245      -0.75075163586710
C         2.35919159144304      -1.72913133311906       0.51893633359825
H        -0.58934697325078      -0.62683902003262      -1.89988794863095
H         0.62908891568179       0.62231147773260      -2.29251862571469
H         0.14072529535878      -0.58852857285070       1.70724865158255
H        -0.85537272137389      -1.36905033107011       0.43566666579839
H        -1.65662741722522       1.56699652882699      -2.34883782428015
H        -0.69072246633691       2.35030431116021      -1.07194889621316
H        -1.05098364568861       1.57479605873004       1.37913223846381
H        -2.19190006410082       0.24084047470218       1.73497135284748
H         0.76558368692075       1.93654182730580       0.57228624584943
H         1.94018761312828       0.72527516074701       1.14367787755329
H         0.76954000505590      -2.03239500921718      -0.91863309349663
H         2.06873333362477      -0.95830318779878      -1.48038989776443
H        -2.93316809139680       1.78085299223160      -0.15454833392013
H        -2.78429633700663       0.08593068102276      -0.68503016553932
H         3.05917191464472       2.40611784088170      -0.20823582194273
H         3.13587159089527       0.91215616009759      -1.17165863367220
H         1.94437488800267       2.23605722656077      -1.54237076476625
H         2.85759113708355      -2.64826028864556       0.17599714671965
H         3.14187128241621      -1.00239551806535       0.77461799498307
H         1.79363157592262      -1.98164434667733       1.42645787773732
C         0.02512083099713       5.73463855612229       0.87414074896349
C         0.10599749357432       4.24749423531867       0.50628687938662
O        -0.07885134042161       3.41234948735858       1.45157099777946
O         0.37480772488794       3.97005934744981      -0.70085484884605
H        -0.30753128359479       6.32761683404759       0.01085314635732
H        -0.63954626736903       5.89523595470607       1.73451858343333
H         1.03129311418082       6.08590194923788       1.15439697986820
