47
C13H26F3NO3S optimized with DFTB in AMS.
N        -2.31839306478097      -0.17716238945704      -0.45174927883551
C        -2.58606233361780       1.03773534501636      -1.29135054655161
C        -3.48056910198040      -0.42463528164968       0.47165138111763
C        -1.12188921904904       0.07794614580608       0.43247132771087
C        -3.90503479054073       0.95429914230749      -2.04732011283093
C        -4.82103202708919      -0.50294642927942      -0.24536202885793
C        -5.06519024867149       0.75474912258068      -1.07541120276257
C        -2.07424172266927      -1.37226248495714      -1.29913298408212
C         0.20929101053771       0.22166405068279      -0.29734873802221
C         1.27208633469780       0.67273362920184       0.71384192868120
C         2.63708627391041       0.84127459333325       0.04145651416518
C         3.69394493347113       1.30247656504692       1.05019345832392
C         5.05881572504855       1.47569688617851       0.38647344346393
H        -1.75299198105680       1.15149409675902      -1.98717394705781
H        -2.60704000867066       1.88939337564955      -0.60605152825221
H        -3.49198782174419       0.39835084678752       1.18831773246694
H        -3.27233933296237      -1.35298763107398       1.00802876481102
H        -1.33699935812821       0.99292259095749       0.98511316292989
H        -1.07345560459826      -0.75040938246692       1.14348942026520
H        -4.02903095716564       1.89674526010796      -2.58681208106776
H        -3.88265082546096       0.14736830731162      -2.78661761955705
H        -4.87942171130891      -1.39389735369703      -0.87853085192013
H        -5.58983818010299      -0.59067385479100       0.52643134441693
H        -5.14069457142669       1.62058591975615      -0.41190368403690
H        -6.00282996517063       0.66020313298199      -1.62780643744154
H        -1.29540424693419      -1.14687664506933      -2.02408864733265
H        -1.76129844614050      -2.19585787286740      -0.65970893524517
H        -2.98677883968406      -1.64398681438411      -1.82331145908275
H         0.51498637804223      -0.72849642017959      -0.74627020870361
H         0.13672159055541       0.96746012049176      -1.09340812306165
H         0.96278106042448       1.62231586645253       1.16089523134452
H         1.34567619063779      -0.06767918617500       1.51689478291075
H         2.55657971102380       1.57704066486084      -0.76623744883086
H         2.94573103526407      -0.11112806692788      -0.40426039665908
H         3.77169890958957       0.56620678870619       1.85712969736987
H         3.38111413354792       2.25323047064561       1.49373817753147
H         5.39768787626110       0.53252662313723      -0.04487844853209
H         5.00594806583194       2.22136730169416      -0.40808299927181
H         5.79250048129658       1.80432829849897       1.12267968275947
S        -2.71075024568648       2.56056457399960       2.60984952676860
O        -2.50796752501284       2.84516779435716       1.18899539634662
O        -2.11492575806245       3.49889178471691       3.51899351494803
O        -2.51509837412887       1.15106841817710       2.93109846637996
C        -4.54579189043992       2.76592604760070       2.79066827560425
F        -5.15209615158312       1.90434662873471       1.94895506132941
F        -4.94904023214375       3.98671255481200       2.46784508538125
F        -4.96696952832900       2.49031868992484       4.01587159716903
