64
C18H26F18NP optimized with DFTB in AMS.
N         0.24857823636863       0.95010226699515       0.99068588376768
C        -0.26137857458217      -0.36008541496594       0.46545075879237
C        -0.62837281126400       1.40452080520900       2.12748668941134
C         1.66717604073796       0.84132123578354       1.48053939244148
C         0.12019773509554       1.94143307728155      -0.14153822244850
C        -0.39094910652435      -1.43342371520194       1.53963226738485
C        -0.79004905926197       0.35837008988095       3.22232418861431
C        -1.31424304353639      -0.95919933041738       2.66031966926512
C         2.71064483097816       0.50014032579820       0.42242308542496
C         0.65442640701523       3.34333272368942       0.14388826286173
C         4.10100518614847       0.60109213349777       1.06638141273130
C         0.40377220313042       4.23927990417959      -1.06753601854362
C         5.19918978121648       0.26284101415226       0.06183657054272
H         0.41531462862981      -0.68470216000498      -0.32740846641781
H        -1.24351477005748      -0.16261281237099       0.02617592933277
H        -1.60309684457148       1.65051669144540       1.69770106873520
H        -0.18308842376257       2.30761523558889       2.54320131313922
H         1.68192814169201       0.08524147814341       2.26599886794680
H         1.90764704572027       1.79890169215841       1.93713860068816
H        -0.94603846464083       1.99532174244240      -0.38005662028990
H         0.63578917739175       1.51035205895527      -1.00355227397339
H         0.58986599571167      -1.69747540039005       1.94298482082775
H        -0.80486405517729      -2.32499481072221       1.06119348234212
H        -1.49416646482299       0.76617313772735       3.95154393565709
H         0.15725558300293       0.19403639950425       3.73885826113681
H        -2.32757739431969      -0.82314270505639       2.26854383592406
H        -1.35188185560237      -1.71147824202428       3.45112360811496
H         2.66031039713682       1.19761589620041      -0.41712904075285
H         2.55707015173942      -0.51157487545713       0.03443667986916
H         0.15624581941651       3.77393443137748       1.01343533701002
H         1.72569715395277       3.31232743698719       0.34635240460198
H         4.15731787409645      -0.08372164266177       1.91836531185539
H         4.24852710882386       1.61839901035153       1.44151308414524
H         0.79008649566581       5.23550882082664      -0.85685954643012
H         0.90967959855802       3.84780023104470      -1.95107781511574
H        -0.66346512307029       4.31583455296843      -1.27867483017307
H         5.16548901207600       0.94743302530339      -0.78653015566012
H         5.08207300970389      -0.75684937195382      -0.30792655484525
H         6.17424642058031       0.35016430475653       0.54001969025912
P         2.08861233349965       4.41040163612295       4.18771249440011
F         3.53084161155054       3.59512652253543       4.42153373538725
F         1.92921050841902       3.62722376476316       2.66332405468218
F         2.16611180710888       5.18574566681901       5.66459340475464
C         1.31996240681738       2.81028105038512       5.05967420946023
C         3.19549271784695       5.82898815560265       3.40639017682981
C         0.32982794561697       5.26700582531667       3.71747844345949
C         1.69678688116675       2.52800355655290       6.54066115294842
C         3.65510938573218       5.65075974979562       1.93437484553893
C        -0.44052396763393       6.08197247547369       4.78421072962011
F         1.73828011891616       1.72510675891163       4.35600223331639
F        -0.02999758865530       2.75605637606304       5.03443570465279
F         4.32088409773320       5.91529928357430       4.13435146264550
F         2.59040905330508       7.02514642540689       3.50091005576823
F        -0.53585573624638       4.31544805725911       3.27329819415093
F         0.52064205983486       6.07429807280860       2.65519277661222
F         1.29862497050716       1.28715931876408       6.85861074313877
F         1.07279478380097       3.37109503381854       7.35400383017034
F         2.99961177179711       2.60153833844343       6.76742813555783
F         4.48248471472144       6.63093414747143       1.57499199140050
F         4.30123987324890       4.49437565238466       1.77281201041505
F         2.62701270231328       5.66045812222812       1.08120614681946
F        -1.63045605789934       6.46649918535233       4.31532039024342
F         0.23269402655592       7.16775579568645       5.14042736646392
F        -0.65164456565274       5.33860429843787       5.86958728619018
