50
C14H30BF4N optimized with ADF in AMS.
N        -0.05845777786041       1.60869950741095       0.09626321905577
C         0.56221064197421       2.59694207871574       1.10263935040754
C        -0.77994499495527       2.48664700381198      -0.90777046154073
C         1.04256969933432       0.83307189868364      -0.61287400560287
C        -1.02115716064587       0.67977074899356       0.80836953562194
C         0.44898269250734       3.98965871074817       0.46893107870286
C         0.05962478300168       3.74733648173464      -0.99564457663632
C         1.75604233114864      -0.17878349054364       0.26394124288289
C        -1.74392269835992      -0.29609825258434      -0.10009929935562
C         2.99318503600809      -0.73187492007251      -0.44373947129731
C        -2.64487024947253      -1.19994708856917       0.74675134202780
C         3.72525477789775      -1.76290013371408       0.41566697445963
C        -3.38956339958499      -2.24126697255061      -0.08506708059508
C         4.96756772680327      -2.32194273393220      -0.27115387382286
C        -4.27652344532084      -3.14339491312045       0.76923720337266
H         1.58985011101126       2.27305173650345       1.29217789530587
H         0.02765470198809       2.48365173603420       2.05524840410895
H        -1.76793763532800       2.70764352886809      -0.47544335604508
H        -0.90916499358629       1.93780049613236      -1.84870832671879
H         1.74671216906418       1.59172554981886      -0.98794403432948
H         0.57443499227652       0.34610134115014      -1.48239963907800
H        -1.73202898149061       1.33871102466745       1.32958689310755
H        -0.44888938720851       0.15545387183593       1.58688928613522
H         1.38720908096506       4.55361108983161       0.56682381953650
H        -0.33996712988428       4.56818929323177       0.97400336264130
H        -0.51430038439168       4.57906385620218      -1.42965184130028
H         0.94435512899681       3.58858518381986      -1.63219163130031
H         1.07974804321599      -1.00996297443581       0.51790469340464
H         2.04661426663259       0.26487919733373       1.23002668734349
H        -1.02345134101115      -0.92909218581265      -0.64613134588791
H        -2.35627752520731       0.23102547740414      -0.85372359969510
H         3.68657143752527       0.09608575970675      -0.68574377292089
H         2.70761281279406      -1.19505871507527      -1.40799705608860
H        -3.37452701068544      -0.57766372446564       1.29662779037029
H        -2.02874048716232      -1.70128722279305       1.51403926024075
H         3.03030184632867      -2.58455055430121       0.66365312284946
H         3.99935760359174      -1.29614278230537       1.37775002833389
H        -2.65544916768639      -2.85791112709517      -0.63534345011463
H        -4.00393668907011      -1.73013178082885      -0.84908001978236
H         5.47809740372136      -3.05943154181948       0.36642600251269
H         4.70676454613011      -2.81908655428609      -1.21982196421469
H         5.68760749880907      -1.51966945263216      -0.49999660113573
H        -4.80119616730287      -3.88960071114169       0.15363981542187
H        -3.67829543209794      -3.68213683035424       1.52085389338238
H        -5.03550806471442      -2.55364104643550       1.30751242454717
B         0.76909000472456       0.37593358462774       3.88483077239075
F         1.00136318673640       0.05840063212814       5.22014778653449
F         0.49579787239208      -0.80774634646142       3.11196509313897
F         1.90991784685162       1.02943615553024       3.30377661787732
F        -0.36347552460359       1.25570919810532       3.75166198794796
