37
C11H18F6NP optimized with DFTB in AMS.
N         2.87656479472206      -0.21397756611012      -0.50466158856677
C        -0.87059541825975      -0.69772208637461      -0.45663642924214
C         0.46527726854449      -0.08901658085447      -0.02467658413401
C        -1.87500161681864      -0.65049922940397       0.69895290360493
C         1.53626677071601      -0.31371246126791      -1.10113001103344
C        -3.21569541226826      -1.26731188981782       0.29043875621891
C        -4.21271777666518      -1.24048893387400       1.44763321281916
C         3.63429393584623      -1.31109895743495      -0.38565262822060
C         3.27240807222464       0.96034746298052       0.01787201809305
C         4.84803371749340      -1.26153213374741       0.27534578933871
C         4.47247929135347       1.06086366918924       0.68387766421630
C         5.27636467696890      -0.06663879839962       0.82627789062867
H        -0.70900285854100      -1.74065495551101      -0.74686641054027
H        -1.26534459935656      -0.15930984479445      -1.32571646013018
H         0.35370829723236       0.98246141492045       0.16786362812461
H         0.79064421819070      -0.57014568986958       0.89912743902937
H        -1.46317868871439      -1.20297420407292       1.54934813515958
H        -2.02680250069729       0.38857384191913       1.01230337366777
H         1.46141739604782       0.42789743854422      -1.90151980722605
H         1.44105152469070      -1.31468118345954      -1.52578632545003
H        -3.62944880884861      -0.71567862724855      -0.56145819408510
H        -3.05606268388544      -2.30301013010008      -0.02718393211007
H        -4.40016816055622      -0.21437582009416       1.76825801890864
H        -5.15847296422536      -1.68592885155416       1.13753048431441
H        -3.82479281805380      -1.80392319894786       2.29708768594818
H         3.24387509152640      -2.23297082678981      -0.79564549949570
H         2.60589996948530       1.80488399732980      -0.10759875813945
H         5.41881831765952      -2.17446797267449       0.38115218295733
H         4.76807391229183       2.01462715095329       1.10209765791485
H         6.21287908956884      -0.00753036131281       1.36704551125112
P         1.86670778527674      -3.20019287904794       1.77153447049033
F         1.36587575578353      -4.73359758407503       1.59504349388999
F         1.39566376643614      -2.87017555539027       0.18251078943185
F         0.38391422595151      -2.71761491825906       2.27906246387959
F         2.39685381495156      -1.60517584852987       1.88947039939475
F         2.36038573085174      -3.47139378517757       3.29518324721772
F         3.37380320507659      -3.59771884794262       1.18460098057397
