47
C13H13F18N2P optimized with DFTB in AMS.
N         2.64333616667538      -0.36216075106008      -0.56799030346645
N         1.50236681261805      -0.21802665187741       1.25563697855373
C         1.78349121756870       0.39760610926405       0.10995146988904
C         3.34076254652218       0.10504439022309      -1.76937601986835
C         0.66051132714927       0.32680287400132       2.31607113563143
C         2.92883278626128      -1.47735960583839       0.17120009590735
C         2.20331461875728      -1.38938545177470       1.31735278403458
C         3.94123965393057      -1.03832636748160      -2.56955282020142
C        -0.80101536011945      -0.02008059020871       2.06135460720475
H         1.41987539396828       1.36336991973755      -0.19517733328925
H         2.61523237928487       0.66037110944598      -2.37094172474311
H         4.12130626751646       0.79890624147776      -1.43707034285748
H         1.00800517227434      -0.09745550689680       3.26030041081348
H         0.81202010109536       1.40884499788173       2.33731260364891
H         3.62871602666989      -2.22558979797584      -0.15348251388774
H         2.15200061268016      -2.04162463528532       2.17111030470456
H         4.74862950636889      -1.51664237099541      -2.01793121759707
H         4.34948668018650      -0.63386041232182      -3.49474480727972
H         3.18303667787835      -1.78188568476395      -2.81442443100074
H        -1.13323639569027       0.40350386378920       1.11386040681266
H        -1.41049493604689       0.39042946712762       2.86480226058310
H        -0.93685409927766      -1.10086919329726       2.03113745942254
P         5.19647014822261       1.52227204796165       2.29145409976901
F         5.68444183957018      -0.03673002042196       2.68177391405264
F         6.35337137504595       2.16669685772154       3.29330767301671
F         3.98805029561158       0.90600573416483       1.24056135857008
C         6.43826017495133       1.41032255066951       0.77185955686444
C         3.90711508326130       1.28703774130961       3.75931870349765
C         4.60652208829358       3.37583693258072       1.82445064289755
C         6.88305637550152      -0.00172878237006       0.30260794837701
C         4.40764022453616       1.42757172936821       5.21941186737529
C         3.37923549103083       3.61604331881921       0.89763032329517
F         7.55510989203990       2.11884870772807       0.97168292958558
F         5.81450529133000       1.93810905893518      -0.31265756958611
F         3.38779321933318       0.03802408987336       3.66111415881621
F         2.85004767697037       2.11820633203409       3.63227354893304
F         5.63482657673836       4.01856678564956       1.24094045650418
F         4.33991289581618       4.02975030177690       2.97234794482607
F         7.50916565793346       0.08651883146852      -0.87530614199258
F         5.81646243596963      -0.79773080759016       0.10775098506067
F         7.70088267544796      -0.59862390280661       1.15307487248128
F         3.42426552297441       1.09492472644529       6.06520320958466
F         5.43561021822993       0.62182858141963       5.45557225654540
F         4.76954797512562       2.67514856531133       5.48808785189645
F         3.12839864404634       4.91453310972314       0.76611573608899
F         2.26195013359101       3.04087816434670       1.37369490347815
F         3.56305639265721       3.11367751921075      -0.32777967375235
