58
C16H22F18NP optimized with ForceField in AMS.
N        -0.56880887439528       0.29410969390583       0.22230876765376
C        -1.57455411037054       1.21091394754986      -0.40441503956191
C        -0.85385108985924      -1.12464620829860      -0.15653242595853
C         0.77238379561824       0.70424140566621      -0.31304952607980
C        -3.04143388653443       0.81389840966664      -0.15350938712895
C        -2.30292790266239      -1.55899653460355       0.12428771930395
C        -3.29235180905297      -0.63074107898130      -0.56946220236025
C        -0.58328277230159       0.46136665349940       1.70142770392206
C         1.98751357448732      -0.08007374263402       0.24083962152770
C         3.28761503505999       0.40778037975117      -0.41148326933262
C         4.49502110486760      -0.36005311364934       0.11922074470133
H        -1.43428749152270       1.23967336264096      -1.51039634009350
H        -1.43074187802570       2.25451554424442      -0.04165899079622
H        -0.19510825779474      -1.82529045259437       0.40017370351613
H        -0.65425100905901      -1.28182917226834      -1.24158991975605
H         0.94764331470055       1.78538611687696      -0.10284944623756
H         0.78417055619793       0.59955707939787      -1.42309919359141
H        -3.70116962119091       1.47798343103344      -0.75300605414517
H        -3.32208275994021       0.96205209970524       0.90963845085111
H        -2.50036011322798      -1.57934058069977       1.21711582315529
H        -2.45177132971343      -2.59283699804708      -0.25597295133357
H        -4.32954680158096      -0.92141090513017      -0.29592162537189
H        -3.18616793714019      -0.72723503866185      -1.67273595814608
H        -1.59611332760793       0.33715139910457       2.13042478102250
H         0.05246519443015      -0.29784816858514       2.20455466302291
H        -0.22243475306686       1.47251260761006       1.99351054851788
H         1.88178189705477      -1.16328522028264       0.02764851047702
H         2.07725876139193       0.06894166273150       1.33700939166565
H         3.43000237606987       1.49033157311404      -0.20129641690579
H         3.23094452672773       0.26771751102265      -1.51323665847436
H         4.39036816686034      -1.44383473494735      -0.10153765839192
H         4.59216474516875      -0.21612071396991       1.21647305271008
H         5.41809662921561       0.01393665430859      -0.37167843119828
P         2.99187373884120       1.72198875942272       5.77341561858544
F         1.99841871563299       1.12261697668352       4.49753350243542
F         4.59378460420885       1.19846578992267       5.41421171519532
F         1.37949741825010       2.29910830204260       5.93976494434114
C         3.56705282185956       2.92549686295975       4.37659664231005
C         2.80095558291934      -0.16108549574016       6.18570034260892
C         3.19545862406326       2.49691585969594       7.51835940968147
C         2.52765742972196       3.96651594605344       3.90540260122672
C         3.65646004352824      -0.73452462212273       7.34742651325895
C         3.01911426056590       4.01943112537406       7.65659203598020
F         3.91573699647165       2.18474667732030       3.25254243939197
F         4.70652430461688       3.60385783217693       4.77772029691909
F         3.11921977105204      -0.91679226745960       5.06120662731057
F         1.47270281517107      -0.40904828293813       6.49548064800874
F         4.45966079983582       2.18307187049864       7.98472315773151
F         2.26409495640365       1.92714192745179       8.36854727148969
F         3.07171537089084       4.70074135996462       2.86634366984193
F         2.19233172893954       4.84627460692449       4.90936999122424
F         1.37799556722317       3.35609457343755       3.43956376572659
F         3.56877852740276      -2.11557501785753       7.31971940291792
F         4.99173143582373      -0.39772656106996       7.23357914435837
F         3.19025852222785      -0.32535091485718       8.57957888854800
F         3.91224372118559       4.71139775709573       6.86704562753880
F         3.26545171112410       4.37455436260779       8.97129982210832
F         1.72327271933617       4.39943306753676       7.36028568237714
