37
C11H20F3NO2 optimized with ADF in AMS.
N        -0.26164590996068       0.11276538893041      -0.02757580722506
C        -0.83390018020544      -1.02363620631786      -0.84184235274404
C        -1.11665773142399       0.05750611970359       1.21428105973231
C        -2.35052759202051      -0.96407326224719      -0.61005767234295
C        -2.53383086963563      -0.13779648693203       0.69070741330241
C         1.20998865261337      -0.08405927074642       0.30891711514263
C        -0.46488669091655       1.42017489826016      -0.80600472038118
C         2.05640112274928      -0.57373990730320      -0.85416919927116
C        -0.45708885472054       2.66615545879356       0.05167205418978
C         3.52199724711997      -0.61323712532382      -0.41579073441181
H        -0.40132366357111      -1.95050826240516      -0.43734027631848
H        -0.52054681790656      -0.90313352050741      -1.88606353733481
H        -0.94879851203565       0.95549381977515       1.81984254016680
H        -0.77877784408792      -0.82565065285363       1.77736029550396
H        -2.75300026391690      -1.98269996059439      -0.51105787883579
H        -2.86954229263345      -0.48936040354076      -1.45534959534411
H        -3.00764337065254       0.83124907819407       0.47501115555627
H        -3.15576033181123      -0.65397694513262       1.43603744449204
H         1.23960328955842      -0.79367787631585       1.15310800656788
H         1.59244520545235       0.90371677499474       0.61977096164788
H         0.37779232699872       1.48485778995723      -1.52660208627857
H        -1.41415464345115       1.30952043470184      -1.35103040512540
H         1.73554207451532      -1.57744908496939      -1.18387230047812
H         1.96107723778430       0.13451544519103      -1.69564407866609
H        -1.33492685520561       2.75904200368738       0.71006482524370
H         0.48226238539017       2.75163436401968       0.61851114180394
H        -0.46249230590614       3.52200334864809      -0.64141799387492
H         3.85022103943085       0.39575300743381      -0.12430130510470
H         3.67160218898849      -1.29801934363937       0.43539421548563
H         4.15550182784141      -0.95703260077474      -1.24596572486410
C         2.70153894996145       2.77789327514616      -1.45971043878749
O         2.70751171521970       2.58850648429597      -0.21897100975767
O         1.98117771474451       2.27966530814229      -2.36530217898148
C         3.75026690955173       3.80707408496228      -2.00707934598789
F         4.54526694718254       3.24960746904435      -2.97552441976523
F         4.58623382767238       4.30338189011396      -1.05078323272283
F         3.11878439938666       4.88440685540807      -2.58028945613134
