27
C7H10F2N2O4S2 optimized with ForceField in AMS.
N         0.16014580726643      -0.00214893015954      -0.38124234890543
C         1.60423245464680      -0.00465012678421      -0.64078180375973
C        -0.50273209639547       1.18719579868299      -0.24740484808993
C        -0.50698145267086      -1.18854494316454      -0.23999366313350
C         2.37266054521559      -0.00104257193141       0.67520178077740
C        -1.86964476946655       1.20837224284717       0.03871999007303
C        -1.87412331624596      -1.20298627697176       0.04626246267466
C        -2.55625151661858       0.00443751170310       0.18833282957442
H         1.89153073378612      -0.90181044766996      -1.23296205806768
H         1.89419156372214       0.88613757464303      -1.24082348102027
H         0.02585680737322       2.12730084065024      -0.35411432428715
H         0.01800845414657      -2.13140852390586      -0.34072643647316
H         2.12015902349985       0.90584224281343       1.26475519672163
H         3.46466237200168      -0.01016669320037       0.47550974710716
H         2.10516217538726      -0.90104141028356       1.26517736918435
H        -2.38945140444242       2.15143890845272       0.14705003573070
H        -2.39773104231741      -2.14333284515912       0.16050236343867
H        -3.61470635471019       0.00722157564674       0.41478813488104
N         4.85957371449299      -3.86057340274816       4.35959207170085
S         4.65108026681265      -2.75236316432058       3.17523420154380
S         4.12982999754703      -3.68714805728646       5.81338328809418
F         5.55798698882223      -1.39066109264339       3.53111039656364
F         2.49931391921240      -4.03457655579123       5.65605207580387
O         5.10196126147425      -3.32407582514328       1.86107294540643
O         3.20175047313363      -2.36594699065066       3.09134055440909
O         4.28138135011255      -2.27195185769709       6.29706472518937
O         4.74913324861405      -4.63105370302823       6.80438696796256
