60
C16H36F6NP optimized with DFTB in AMS.
N        -0.15743953926324      -0.13876952675704       0.19419057386954
C         0.67711421757894      -1.23685453762483       0.80996453225543
C        -1.08862172572575       0.39108975588665       1.25909133029880
C        -0.92181430943479      -0.69767797862211      -0.97222306184483
C         0.70595555402653       0.99473643848294      -0.29413675396633
C         1.73039151684789      -0.76754100647737       1.81135018730107
C        -2.11972561474756       1.41381320855330       0.79420088228826
C        -1.93952740549078      -1.78218881798539      -0.62330911519498
C         1.76781956934668       0.61342593334662      -1.32237923400616
C         2.30043037495164      -1.97660420599901       2.56253658666178
C        -2.86379344634236       1.94593802264346       2.02833801832704
C        -2.61886360509449      -2.27002054174358      -1.90946149194624
C         2.67594488320135       1.82655857804482      -1.56645591692247
C         3.36851262206093      -1.52766261787233       3.55776614332584
C        -3.93994891434724       2.95104167786592       1.62773023570137
C        -3.65132530479494      -3.35355943404924      -1.60686088307576
C         3.75881249209648       1.50536051194927      -2.59345078313993
H         1.15111660989607      -1.78354819846574      -0.00957095614088
H        -0.02098984268914      -1.91197179083082       1.31015768367388
H        -0.45791775637066       0.84430161091842       2.02065019344852
H        -1.58969054546386      -0.47099275628813       1.70343604455625
H        -0.18706486787709      -1.10647074469671      -1.66955419245463
H        -1.42561271453486       0.14161425519707      -1.45763738962790
H         1.17726843295751       1.43406633991661       0.58627183015930
H         0.03661216505394       1.73900176888494      -0.72926391924797
H         1.29687469182912      -0.08230768944929       2.53823058220371
H         2.54321714049331      -0.24755853981853       1.29938841196154
H        -2.83631563242162       0.96419626604514       0.09968833429842
H        -1.63586519013324       2.25313377909478       0.28898122731733
H        -2.70136512414940      -1.39320114005756       0.05594072946534
H        -1.44770993652784      -2.62703110040156      -0.13476064296179
H         1.30414979219828       0.31553503501970      -2.26747820152770
H         2.37699979297242      -0.22081127787579      -0.96695369630951
H         2.72993286424879      -2.68918278360211       1.84863073277970
H         1.49063997771686      -2.48385509365513       3.09788847781766
H        -2.14596885805711       2.42697529523124       2.69793878376565
H        -3.32236617688606       1.10907199809252       2.56498830833274
H        -1.86123268198862      -2.66597294829706      -2.59381294907090
H        -3.10901049253117      -1.42481302384518      -2.40369724014842
H         3.14294018828394       2.12315926525909      -0.62248612018973
H         2.07074846400651       2.66695729058084      -1.92107574579022
H         2.95313802523909      -0.79951573517014       4.25334532171025
H         4.20695020424722      -1.06729983566037       3.03411312616638
H         3.73561256111637      -2.38547192434137       4.12111370703660
H        -4.67882792275163       2.48737787721351       0.97162969828117
H        -3.49491686780619       3.79946771116651       1.10652187228416
H        -4.44776259355186       3.31928392184528       2.51867078011180
H        -4.42412845592183      -2.96939653060656      -0.94028560836063
H        -3.17637551784568      -4.21223646999206      -1.13111881330451
H        -4.12243731117595      -3.68440412566701      -2.53202663022679
H         3.31192930275287       1.22219514400255      -3.54749689550644
H         4.38493457428643       0.68326019120334      -2.24456390833405
H         4.38942471277321       2.37995843205505      -2.75063780996153
P         0.94014593200996       2.38980374240414       4.04534103445502
F         2.32461426439859       1.49019520149966       4.00774763400989
F         0.05631197265239       0.95933303097050       4.00638484081984
F         0.91913171688778       2.36528020624831       5.66852722536182
F        -0.47579904567795       3.22569249697236       3.99057520468480
F         1.80014545159161       3.76979735821391       4.01273294694295
F         0.94067994358024       2.36767142954355       2.34749188568639
