59
C17H34F3NO3S optimized with ForceField in AMS.
N        -0.01111232237506       1.99062993843298       0.00241745732386
C        -0.68874720830792       2.89697256711126      -0.97564438722059
C         0.65131827491659       2.90542075675504       0.98278058701458
C        -1.02653305174014       1.14893454538674       0.71633226150984
C         1.01774184092497       1.16735150469202      -0.71369434972149
C        -0.21091199763043       4.31400079364346      -0.72223686784319
C         0.14450566807398       4.31372135935342       0.73724557642577
C        -1.76918949203970       0.13136546939366      -0.18371026901347
C         1.77813535579362       0.16066373512602       0.18368711369741
C        -2.87403086057990      -0.58359363659994       0.60461224226084
C         2.88440525885315      -0.54505381165294      -0.61098272576988
C        -3.62604564345846      -1.58928566768262      -0.27555210278115
C         3.64410406227362      -1.55071215001994       0.26257685171959
C        -4.69332985186515      -2.33434060045708       0.53492401622385
C         4.68087568929802      -2.32047702537623      -0.56449421206069
C        -5.45000904649381      -3.33524904183232      -0.33308979038708
C         5.48285823471852      -3.28145638969573       0.30827095866676
H        -0.49878905402619       2.62046075714977      -2.03798246021041
H        -1.79560921102707       2.90331484232077      -0.84782910527400
H         0.46997090851821       2.62015925683592       2.04429991771614
H         1.75740821039178       2.93420010264401       0.85151105864354
H        -0.55256880967992       0.59273409208324       1.55497129442690
H        -1.78411707992303       1.81103909588040       1.19713343166945
H         0.55168894349021       0.60481973050977      -1.55259923796427
H         1.76409888650941       1.84249287583865      -1.19393593627190
H         0.69531960680277       4.52312196626561      -1.33299194521235
H        -0.99829790734181       5.06521136646527      -0.95138186871613
H        -0.76586753369768       4.50084741543697       1.34901176182317
H         0.91628032862311       5.07969288226203       0.97046013686715
H        -2.22253151882681       0.64193530995141      -1.05909709807986
H        -1.06090056403479      -0.63740502209743      -0.55622852290425
H         2.23240637928582       0.67837510832862       1.05446970360920
H         1.08099900268774      -0.61483999244969       0.56283550664286
H        -2.41744130485152      -1.11870731654224       1.46657876347542
H        -3.59422790549829       0.16813027240210       0.99648522904246
H         3.60014126293079       0.21202882649187      -1.00106553265534
H         2.42807024942851      -1.07809525825877      -1.47426153918058
H        -4.11254859105590      -1.04885676630339      -1.11761559131421
H        -2.90519436460789      -2.32473117707515      -0.69648085726997
H         4.15536639959464      -1.00535809936351       1.08661671868104
H         2.92614977714744      -2.27336733355806       0.70965423327150
H        -5.41843244770721      -1.60594074235211       0.95931422673607
H        -4.21126029834930      -2.88091600328087       1.37479607908636
H         4.16632804041284      -2.90216234674521      -1.36017085253502
H         5.37973224245793      -1.60724308255450      -1.05241429966537
H        -5.96889824002425      -2.81107242923402      -1.16372562403953
H        -6.20894802320442      -3.86201484068510       0.28317865468224
H        -4.75007363805107      -4.08844464924134      -0.75371986243780
H         4.81135247639469      -4.04194214322611       0.76072526061018
H         6.24176432775470      -3.80204275851317      -0.31309865710731
H         6.00665194379910      -2.72719922149850       1.11611761043324
S         8.82730806930212       0.33097524497024       2.16233498604236
O         8.05151594486134       0.16966151863101       3.47779755147639
O         9.53648141807420      -1.02243375205156       2.00807191146929
O         9.97041577616769       1.28193017102019       2.54613832346036
C         7.83285101297814       0.85131114631934       0.73651215531525
F         7.27371802179891       2.08894616574365       0.98859923312026
F         6.82780707667896      -0.06836717308409       0.51768773547004
F         8.63619291095423       0.92911509948615      -0.38459499907753
