52
C14H23F6N3O4S2 optimized with ForceField in AMS.
N         0.21703777567014       2.31271364055842      -0.20528369487628
N        -1.85747704816478       1.50521788647321      -0.18650362889307
C         1.60814163591400       2.51583605466974      -0.61184994162738
C         2.54087893114894       1.49999979265287       0.06807268366026
C        -3.04157679751151       0.74128508141520      -0.58023535825259
C         2.11476527813817       0.05430391791627      -0.22450762379013
C        -3.06398901003735      -0.63659650184948       0.09847842186640
C        -0.74387058103401       1.69521194694912      -0.92132765066752
C        -0.31048555064913       2.53085065838427       1.01661427057363
C        -1.59702980163503       2.02999137905252       1.02839793585117
C         3.10900406940141      -0.96411134923994       0.33928806366555
C        -1.86355715800971      -1.49857413684220      -0.31762756554474
C         2.60679901570546      -2.39030029065326       0.11691268709768
C        -1.91036622804325      -2.87799732113894       0.32942806488507
H         1.92428808615842       3.54733083867037      -0.34533897953446
H         1.69862424257922       2.41311893536898      -1.71588570472124
H         3.57561948134066       1.66524914234114      -0.30342674809909
H         2.53733790517568       1.67373893072833       1.16627591569049
H        -3.95487660449305       1.30750393727867      -0.29654809900116
H        -3.06040070483849       0.60907612146550      -1.68466255821864
H         2.01660196292212      -0.09410185937119      -1.32270134215342
H         1.13021775171292      -0.12307653658825       0.25103221845812
H        -4.00422047819065      -1.15618555467210      -0.18825170810646
H        -3.06741681351689      -0.50459582203422       1.20242758811660
H        -0.60645022832515       1.31764244322309      -1.92708786247533
H         0.21564629431870       2.97685910955463       1.85018291448249
H        -2.27370188240658       2.00991446715216       1.87275350921275
H         3.24352567932583      -0.79386971562017       1.42927364475977
H         4.09471003565748      -0.84503109603903      -0.15986955469861
H        -1.84328810358130      -1.61487836924629      -1.42308365258963
H        -0.92624994807951      -1.00485153362462       0.00102031272933
H         2.52985016403219      -2.60642275211150      -0.96990774953044
H         1.60743410716001      -2.53026659313642       0.58214851469577
H         3.31416209578109      -3.11196860627612       0.57621649552684
H        -1.91176247956797      -2.78402183846243       1.43624126064247
H        -1.01284223890143      -3.45769045024151       0.02550950115013
H        -2.81781033664218      -3.42794760544636       0.00231021526418
N         1.75963637106460      -0.27424810036754       5.82777371987685
S         1.94104961496971       1.24873440064888       5.24980669649382
S         0.47351185773638      -1.21891821815508       5.45199701309115
C         1.22112361271114       2.39933739239671       6.40346084461651
C         0.92702255346544      -2.31324426584295       4.12449903048539
O         3.40584604740653       1.55407878662309       5.11230436531398
O         1.27133397312976       1.38969975526913       3.91145725383788
O        -0.70049606204922      -0.37956587476624       5.03052118535137
O         0.09814374176276      -2.04233092781390       6.65139938280535
F         1.39292378334741       3.68965736522575       5.93938984633000
F         1.84126342096820       2.26824839168841       7.63173719608792
F        -0.12876473667762       2.13881424866443       6.54308266973970
F        -0.14297269710245      -3.12774093760924       3.80641543694664
F         1.99883353246906      -3.09416365400608       4.51423382829926
F         1.28016180068384      -1.56871396271582       3.01750242757570
