39
C11H21BF4N2 optimized with ForceField in AMS.
N        -1.12686765889656      -1.73317166532945       0.23064896272011
N         1.09484526087237      -1.70670682439835       0.30745741809111
C        -2.52036694767618      -1.45697115932267       0.57319236502113
C         2.45514248969434      -1.40267002371845       0.74802266395890
C        -3.01702478192832      -0.18557951704447      -0.12889034053311
C         3.04391027166376      -0.22909722419326      -0.04773586359467
C        -0.04371076588452      -1.45288389635599       0.98107419536048
C        -0.65878812387426      -2.18692769578983      -0.94961399569149
C         0.71952692479556      -2.17323423998376      -0.90076090196728
C        -2.24462802132965       1.05993093019660       0.33075899409208
C         2.20868022275850       1.04948276324347       0.11527525520133
C        -2.81451815043324       2.33184852046341      -0.28826029831830
C         2.85320720148458       2.23281430657795      -0.59898695222887
H        -3.15013427284173      -2.32013859312924       0.26795558911334
H        -2.62580571426702      -1.33997736166991       1.67422490053446
H         2.45757845186393      -1.15080053753111       1.83164279717475
H         3.09311761118983      -2.30190512880324       0.61086180861323
H        -4.09711984828143      -0.05667007074126       0.10280519623159
H        -2.91397267366084      -0.30628341436881      -1.22963498215440
H         3.10149781597809      -0.50407763168511      -1.12367596809193
H         4.07916556481212      -0.04425959875387       0.31409911883922
H        -0.08352187050052      -1.00880305446414       1.96823653809780
H        -1.27143894178011      -2.47172112392295      -1.79478256434491
H         1.39515439379048      -2.44261852437175      -1.70047933174683
H        -2.29041625781140       1.14586597266532       1.43863883294298
H        -1.18000224018575       0.97266136638020       0.02859217433940
H         1.19773173925455       0.89208881626863      -0.31677088198778
H         2.09818379642645       1.29417180994278       1.19465002914789
H        -3.86837870106314       2.47822341521965       0.03118805647135
H        -2.76782024683409       2.27654215881252      -1.39712615204618
H        -2.21687377222638       3.20555042900055       0.04845179346663
H         2.95794668817444       2.01823963335087      -1.68433600498796
H         3.85342849169388       2.44767332496777      -0.16606372985614
H         2.21211893299752       3.13156016297182      -0.47593210621821
B         2.44646164133211      -3.58697473429971      -4.58088562053286
F         3.14901588751520      -4.30054281086255      -5.58820487340168
F         2.93120115956042      -3.97374258654601      -3.30322692587147
F         1.05995103768509      -3.88184103707398      -4.67103903208020
F         2.64626648903192      -2.19235212390165      -4.76125746586349
