40
C12H25NO2 optimized with DFTB in AMS.
N        -0.27437375343631       0.23495299537091       0.40855538046057
C        -1.14419940508526       1.40196055884343       0.04164094424215
C        -0.79249179222591      -1.01582937781569      -0.22152878274171
C         1.09767854042648       0.55487318060702      -0.13180387753618
C        -2.60528589130210       1.17849517468801       0.39927482864516
C        -2.25867128177061      -1.28128154286361       0.10718721992110
C        -3.13561808002005      -0.08819326579581      -0.27171893238118
C        -0.20219287483452       0.11996008826034       1.89165815314199
C         2.13386800954740      -0.55472202045103       0.01786449774631
C         3.53208327851457       0.05613860700156      -0.14792120416785
C         4.61598210287259      -1.01383796351202      -0.05262420029130
H        -1.04645890654664       1.55201756426967      -1.03713470241318
H        -0.72752298066689       2.26831389711802       0.56997158564484
H        -0.17276304029779      -1.84440259302326       0.12714922870099
H        -0.66511628385783      -0.90711945756651      -1.30269189651805
H         1.42533062415568       1.43769140506862       0.42207892465835
H         0.97521791961589       0.81042885466555      -1.18749852776363
H        -3.16768633926579       2.04745357381784       0.04852431001300
H        -2.73474481247063       1.11494323452376       1.48248293341950
H        -2.37491907112064      -1.50805742248900       1.17035421874340
H        -2.56811991879756      -2.16602478426710      -0.45578794419590
H        -4.16519845697350      -0.27557049606534       0.04238898284766
H        -3.12895929629364       0.04103463737905      -1.35911736777370
H        -1.17558416157059      -0.15112955201226       2.29083815983757
H         0.52822214685748      -0.63641049686013       2.16287875954187
H         0.11344484385054       1.08825910294731       2.27966407739371
H         1.97285358572238      -1.33860961540502      -0.73023546182060
H         2.07599607985399      -1.00995731518836       1.00876619995303
H         3.67670928086067       0.80062875554806       0.64131819785970
H         3.59858887297138       0.56390583036882      -1.11606069496122
H         4.48523267650986      -1.76883535723099      -0.83027889750321
H         4.58042206975370      -1.50693708750620       0.91966741831385
H         5.59831158968159      -0.55731669132227      -0.17386804182370
C         2.50447728081180       3.97782313243721       3.01871979031392
C         1.75742742477883       2.81346054764973       2.33208189229871
O         2.33027875293729       1.70394776771498       2.31060883787060
O         0.63528581114654       3.07537312720883       1.83676171010376
H         1.79679641659924       4.72889416944275       3.36401554010186
H         3.09527881377724       3.60089754719166       3.85129418453894
H         3.17487254419113       4.43004037655147       2.28775952967886
