52
C14H18F18NP optimized with DFTB in AMS.
N         1.16788013858035       0.29751959597780      -0.17959436559738
C         0.92552933025744       1.39888114721064      -1.17578225559025
C         0.11529422802592      -0.75736288204673      -0.32639525692074
C        -0.47885197547795       1.98130388874749      -1.10046236007841
C        -1.29860597517256      -0.20023454926326      -0.20626891041499
C         2.51665999499119      -0.29460285771645      -0.51647744434171
C        -1.53813961883494       0.89157411951105      -1.24774877087165
C         1.18384472882918       0.84703272096076       1.20397109663827
C         3.05163853510176      -1.29295174943880       0.49577038782923
H         1.10430608026360       0.97343436307422      -2.16645368462508
H         1.66761340033315       2.17453743520166      -0.98578934054960
H         0.29385160779074      -1.51382116857199       0.44017707320358
H         0.25276365841139      -1.21165367666273      -1.31170042138870
H        -0.57185244064317       2.70532581378469      -1.91369988438038
H        -0.62333329324203       2.52122802405263      -0.16103492665077
H        -1.47161237469529       0.19138458715189       0.79958047199369
H        -1.99347503119867      -1.02892397480131      -0.36549855345932
H         2.41276460613303      -0.76481345038642      -1.49735608688758
H         3.21033912639376       0.54000318463472      -0.60371954537928
H        -2.53375583584830       1.31967615436552      -1.11146811536013
H        -1.48686914463789       0.45796782947252      -2.25158999750680
H         0.27600225739899       1.41617150035803       1.38246208032821
H         1.24221386076093       0.02584154708646       1.91408315402612
H         2.04967414963393       1.49538985985521       1.30917804211961
H         3.98377839407596      -1.68773725250014       0.09204708091084
H         3.27715317962449      -0.81362025162324       1.44612176350261
H         2.36765295221789      -2.12441383680601       0.66126266851425
P         5.07304858567912       2.82280627486210      -0.10578456560267
F         3.37905558289101       2.61432185622734       0.15274385601372
F         5.23729711992049       1.19398997259397      -0.56703845598732
F         4.87580693788321       4.41974435841319       0.34015264005217
C         4.46266721354267       3.15413235963160      -1.95105019491263
C         5.21860159227622       2.18869849227354       1.78357148284258
C         7.01994158482696       3.16674238526248      -0.28060207141195
C         3.61874754573086       4.41582741006444      -2.27533903447491
C         6.38831812352650       1.30573342755511       2.31909963737816
C         7.67926716198636       4.03680646326271      -1.38924543109149
F         3.64594023517208       2.11981236879671      -2.29898687784885
F         5.49145479740228       3.11918654643981      -2.80938829234191
F         4.14792927626298       1.36260417327657       1.98469513205112
F         5.07335192416089       3.21097277625818       2.63368767644547
F         7.68550923747873       1.99903164437869      -0.25691366835556
F         7.29356174887335       3.80439520158187       0.87921090524000
F         3.32623728113297       4.44146624442523      -3.57892665929185
F         4.22700188161359       5.54910055668121      -1.96957882702075
F         2.45431079062517       4.36765855829535      -1.61396108692052
F         6.03183754708146       0.83094572983172       3.52021579878608
F         6.58789014530754       0.25481712351573       1.52482939960717
F         7.53533979555415       1.94543016830433       2.47409314202448
F         7.98343293416054       3.31077668797637      -2.45878439731138
F         8.80571361899349       4.58322911305021      -0.93618469157271
F         6.86856067134449       5.02751277141332      -1.76084030786006
