41
C11H21F6N2P optimized with ForceField in AMS.
N        -1.27731338875525       1.30284975192792      -0.23815407732399
N        -2.68080361789137      -0.38332014217203       0.12355611646105
C         1.11247262260080       1.92458892722842      -0.22474014833810
C         1.58655294500969       0.47197733503160      -0.37292053237073
C        -0.26213905912214       2.14447424418808      -0.86823350050765
C         2.99428629350950       0.28481317220113       0.20161238999557
C         3.45086824701170      -1.17165266397169       0.05724920473954
C        -1.81546608723650       0.17598332706288      -0.74357829860219
C        -1.81558113269126       1.45878047222043       0.98823111150384
C        -2.68838633530098       0.41299757781158       1.21198327239682
C        -3.39539777483556      -1.64542194199662      -0.04602525236269
C         4.84902712121039      -1.37330390879096       0.63336156342598
C        -4.86112916238708      -1.38544784769559      -0.36850889895325
H         1.84250618241874       2.59696187592719      -0.72470590516161
H         1.06609911559795       2.20031655020461       0.85170405838534
H         1.58807097080530       0.19407432391791      -1.45020770688276
H         0.88696419372589      -0.20304646646932       0.16612756079578
H        -0.55459720302579       3.21210314033614      -0.76611029228491
H        -0.20005673433645       1.91771152239800      -1.95559600232413
H         2.99274245442012       0.56601244351865       1.27798835293743
H         3.70464445447763       0.94953474941420      -0.33796490020322
H         3.46020738108160      -1.45635240559920      -1.01748204660031
H         2.74255461736318      -1.84162542670139       0.59243349174775
H        -1.55991330965548      -0.24336728686498      -1.70896535671417
H        -1.57816411261970       2.26068322685881       1.67597234166075
H        -3.26418349464976       0.23443668423335       2.11112774564698
H        -2.94226957795321      -2.23081894380482      -0.87580626588038
H        -3.31421407231330      -2.24936549318449       0.88362344107385
H         4.85986554263869      -1.12383821675178       1.71575226407504
H         5.58222641204687      -0.73147362653208       0.10008196215619
H         5.15125098574946      -2.43491504936790       0.51079621727033
H        -5.34448722297685      -0.82664614552801       0.46049910357391
H        -5.38976832528727      -2.35207000259843      -0.50806357726644
H        -4.94345254144930      -0.79362323227353      -1.30534668208096
P         1.92387622151487       6.15691986744062       1.48176336281935
F         2.56560853190428       5.02315710745653       2.60184996755414
F         3.51348889890671       6.70315087476129       1.12635848294652
F         2.08030609191624       5.03096670724138       0.19572948910688
F         1.22730244163818       7.26471895516234       0.36870411131248
F         0.36026806887846       5.55331644293754       1.85972960587423
F         1.81139772406102       7.36265949272220       2.70036414899774
