33
C9H17BF4N2 optimized with ForceField in AMS.
N         1.01070834710332       0.35035399870100       0.45367341272350
N        -1.01109922409097       0.33970259261069      -0.46947141173070
C         2.26591910564838      -0.11642923441882       1.03840933271850
C        -2.26189950304757      -0.14036837893303      -1.05283748758629
C         0.00529400351449      -0.41552237875310      -0.01111596767227
C         3.43708130987125       0.09937737949323       0.07356305821270
C        -3.43217347191363       0.04941850886165      -0.08116787887034
C         0.61892153979828       1.62944202580214       0.28387221084733
C        -0.63739801664855       1.62282294701167      -0.28981085735439
C         3.27947557786998      -0.71977013916646      -1.20732437273742
C        -3.25149554084391      -0.76903048116523       1.19724868958996
H         2.18980978802471      -1.19635138878850       1.29286609155398
H         2.45771987147593       0.43560702493534       1.98393492223022
H        -2.17081613895754      -1.21681981672862      -1.31690073831396
H        -2.46614009698171       0.41668761380446      -1.99272232028261
H         0.01283379755405      -1.49914930077928      -0.01506686420316
H         3.52197497716405       1.17735629701844      -0.18297867198364
H         4.37748928440692      -0.20778636916442       0.58023584819272
H        -3.53777934511563       1.12488758352360       0.17854238401313
H        -4.36867735424330      -0.27559057014114      -0.58382936331993
H         1.20030454612023       2.49990957977203       0.55996037684913
H        -1.23150584604155       2.48707272006225      -0.55817382737254
H         2.39720939519387      -0.37190222814627      -1.78565823291195
H         3.15839183751131      -1.79673924211291      -0.96503865296514
H         4.18411899924237      -0.59899606401827      -1.83929277936748
H        -2.38671083383020      -0.38899489422749       1.78174914067504
H        -3.08694025475394      -1.84036859195044       0.95268898637797
H        -4.16368563598041      -0.68460085738935       1.82449014684721
B         1.24371654172766      -4.43008603422746      -2.37821972974217
F         0.18117965310154      -5.36784548581458      -2.28378405253152
F         2.30746997578498      -4.99489939239851      -3.13121108275498
F         1.70549206079659      -4.10648328041094      -1.07496691719885
F         0.78046886803903      -3.25233278746166      -3.02279482803206
