52
C16H33NO2 optimized with DFTB in AMS.
N        -0.06893870982933       1.29469440284775       0.07925658667860
C         0.34504465528661       2.43728360406515       0.95005665727763
C        -0.70514280508379       1.96531032380087      -1.10112450344879
C         1.12660597329495       0.52030507033509      -0.40432269605229
C        -1.05715882531066       0.42945716313019       0.80298016867620
C         0.82337437316285       3.52383451698340      -0.01096229501925
C         0.13350397035298       3.21362152918829      -1.35040980128436
C         1.88233208250120      -0.25268010413839       0.67064762365369
C        -1.53621106828546      -0.76719791957841      -0.01442305838531
C         2.95160341417058      -1.10752724737401      -0.02283012643638
C        -2.63673854353420      -1.51182939775191       0.74559655599973
C         3.70975533137828      -1.97116117218019       0.98745773909396
C        -3.11138508065627      -2.72320163772050      -0.06378449584968
C         4.76056346829237      -2.83559283226423       0.29268949526388
C        -4.20052097017085      -3.49687102233830       0.67610712016792
H         1.10881040363648       2.10920447262543       1.65443225566391
H        -0.53545108970168       2.76960707329560       1.50555050226824
H        -1.72865181185133       2.22838580472876      -0.82447002693087
H        -0.71348592512689       1.26080005867961      -1.94342130784981
H         1.79379549096119       1.23546261497015      -0.88874774599037
H         0.76269831241008      -0.18884922269525      -1.15834792166552
H        -1.90376939172224       1.07359982341624       1.06124005394888
H        -0.58443061922352       0.10280075151608       1.73295041873342
H         1.90967589479501       3.49688256561472      -0.11705124708229
H         0.54450719782799       4.50862594812482       0.36824024323003
H        -0.50458585297726       4.03853653108104      -1.67196157024580
H         0.87381769030914       3.03463978289450      -2.13249097451922
H         1.20549300439880      -0.91599943177770       1.21499295866490
H         2.35288649978151       0.42173060790953       1.39458717799994
H        -0.70764951219262      -1.45116822327965      -0.21131176638527
H        -1.91713039117442      -0.43095440745163      -0.98129523448239
H         3.65382940988682      -0.45439764000988      -0.55209464462429
H         2.45994743132560      -1.74679973113320      -0.76302592039926
H        -3.48138723529548      -0.83860548082518       0.93333053222279
H        -2.25298082486731      -1.84552276405610       1.71662915599673
H         3.00131013353588      -2.61754661383315       1.51685624623917
H         4.19683212298814      -1.32976045593019       1.73121159458639
H        -2.26023202946748      -3.38336952108046      -0.25700338148574
H        -3.49659027969204      -2.38331339965597      -1.03022232646927
H         5.28572485700978      -3.44921163744902       1.02524682832096
H         4.28793728492149      -3.49318882188735      -0.43767819978794
H         5.48964156716113      -2.21008529821831      -0.22443749583499
H        -4.51946256646584      -4.35260470778943       0.08076911169822
H        -3.82849420501384      -3.86076249096074       1.63524889009939
H        -5.06706311881559      -2.85947583993273       0.85979101744244
C        -0.23119683749987      -2.33933273142032      -4.22726970385804
C        -0.11029199677061      -1.46036047943717      -2.96192332377923
O         0.54014370507679      -1.93815119339989      -2.00759459433602
O        -0.68299380884120      -0.34766542573688      -2.98889695186931
H         0.72260810913210      -2.82215814282597      -4.43210240813552
H        -0.97864319287015      -3.10977819856696      -4.03788111876112
H        -0.54258831755788      -1.73890408010812      -5.07970552225866
