60
C16H36F6NP optimized with ADF in AMS.
N         0.02973458133124      -0.20463429690067      -0.07833898047721
C         0.88053572105601      -1.32125302170413       0.52924191995543
C        -0.88397490220333       0.34918426684164       1.01047462894491
C        -0.79071439190542      -0.79554216509785      -1.21906907406198
C         0.89399980952393       0.91987644801546      -0.61332365334572
C         1.88413907472670      -0.89333401539786       1.58579086371169
C        -1.92056283996400       1.36698466963774       0.56397536127380
C        -1.85913632826212      -1.79055161892729      -0.80237111153825
C         1.94748496502392       0.52563921006038      -1.63660325059542
C         2.51475832017858      -2.13924747472083       2.22188231903477
C        -2.84929421175642       1.67656560423628       1.74590480595058
C        -2.57358964766684      -2.36557464042746      -2.02861694276727
C         2.75076244883799       1.75317711601216      -2.08018260611857
C         3.51704312690757      -1.77802713614217       3.31478767161794
C        -3.94115196698145       2.67994699119806       1.38470914945566
C        -3.64276073263395      -3.37677981653505      -1.61759808583271
C         3.82612803316189       1.39657523035789      -3.10405624410974
H         1.38819441332525      -1.80873559500905      -0.31687905407846
H         0.17172675611759      -2.03368262267771       0.97103571177313
H        -0.21788667884046       0.79262952979595       1.76245468523806
H        -1.36570256192716      -0.51772692401219       1.48094909591292
H        -0.06506260878273      -1.27390810913636      -1.89215531763154
H        -1.23280531736255       0.05853069412178      -1.75530014894782
H         1.36882082823615       1.38180625891096       0.26521920984700
H         0.20270748641204       1.65671752289776      -1.04681438618975
H         1.38340975997979      -0.32878850234155       2.38739935926133
H         2.67946878251939      -0.25756419706520       1.15792031053762
H        -2.53334528911451       0.97722216773055      -0.26593604173613
H        -1.45116409318876       2.30352529604046       0.21513211438423
H        -2.60387505505946      -1.31797909202974      -0.14511718473909
H        -1.42900391059054      -2.61518500295718      -0.21440551770090
H         1.48125700562907       0.06960316919322      -2.52571771595277
H         2.64212470040637      -0.21762708448681      -1.21242223970478
H         3.01214814310216      -2.74118176985401       1.44007142231588
H         1.70828353280425      -2.75861398570689       2.64730826828247
H        -2.24894770190071       2.06276138507349       2.58808615175238
H        -3.29870358793710       0.73313024986257       2.10004167194198
H        -1.83899768091822      -2.85014114345748      -2.69728153798141
H        -3.03563074418005      -1.54819084562930      -2.61291243975147
H         3.21972240395903       2.22206906527944      -1.19652301246371
H         2.06535977663830       2.50701422491542      -2.50721139250858
H         3.02552219628091      -1.20966699496834       4.12016578662591
H         4.34591339746059      -1.16721035183434       2.92084272244630
H         3.94899817667784      -2.68464682745800       3.76442591651194
H        -4.56728553746368       2.30616838746194       0.55842446203475
H        -3.51469645650233       3.64710412478473       1.07228652475870
H        -4.60094338684021       2.86522591876363       2.24538933450094
H        -4.39234893198583      -2.90888487387659      -0.96079170299606
H        -3.19566514202919      -4.21210281202242      -1.05706619991742
H        -4.16321200201048      -3.78748346430265      -2.49522894882351
H         3.38043157066136       0.95159771324705      -4.00818854743743
H         4.54119695028821       0.66880397318701      -2.68878581621678
H         4.39313167081724       2.28695240202586      -3.41267846548340
P        -1.75546364627183      -2.92242541131796       3.32384227327139
F        -0.76059014497690      -3.84918903526548       4.23903128266693
F        -2.86841344853924      -4.11639472167443       3.22886967511420
F        -2.47188766584764      -2.28596066124145       4.65032493678006
F        -2.71160602875565      -1.95089206687496       2.33798290461452
F        -0.61515815720976      -1.68751443776571       3.34832990006111
F        -1.00750189485486      -3.51186613103233       1.93145368662933
