39
C11H18F2N2O4S2 optimized with ForceField in AMS.
N         2.37428261789527       0.03645436185206      -0.53693792345317
C        -1.44193588096507       0.05485290606427      -0.69120551392942
C        -0.03784992860506       0.02284540724014      -0.07806331546381
C        -2.51966662901558      -0.01095193972489       0.39890295560366
C         1.04596034163969       0.08344243257663      -1.15949804653459
C        -3.92573146671268       0.00844374561985      -0.21250855393121
C        -5.00162244619127      -0.06091331176039       0.86828200155017
C         2.96259737715954      -1.17295514422973      -0.29043286474521
C         2.99000484798013       1.19710614825941      -0.15619899934028
C         4.19798042136810      -1.24402447600111       0.35627397862115
C         4.22542854019946       1.16281203685359       0.49526041340937
C         4.82933339010854      -0.06696645010193       0.75455027056580
H        -1.56029063358917      -0.81067549170628      -1.37978365485810
H        -1.56524319372943       0.99307660510106      -1.27582880345670
H         0.08693270761523       0.88869885716585       0.60879689138965
H         0.08798151044114      -0.91288930790239       0.50996904843059
H        -2.38895625496446      -0.94464447131208       0.98938701441408
H        -2.40414463264703       0.85850241836001       1.08324341993586
H         0.93335986518707       1.01574882062195      -1.75678252966327
H         0.92282895600724      -0.76789697601852      -1.86628559032769
H        -4.06623521599783       0.94217683977940      -0.79936472026559
H        -4.04853255935092      -0.85931480949146      -0.89655972013716
H        -4.92084392250605       0.81113068116046       1.55161310535684
H        -6.00583754833158      -0.04731120529134       0.39445643017476
H        -4.90041388340402      -0.99822195617897       1.45581332671500
H         2.46860876816310      -2.08920172878555      -0.57987574008844
H         2.52080130654320       2.15583159802255      -0.34249097463510
H         4.65603707867214      -2.20463989521625       0.55436868044714
H         4.70586399840591       2.08237614638706       0.80296018899743
H         5.78188448920685      -0.10802224342494       1.26650690629512
N         1.28764791769432      -6.14589959269920      -2.57169362394739
S         1.80036706255904      -4.61616616943022      -2.30301206243013
S         2.33078834678540      -7.40505661755278      -2.51277163206639
F         2.62185231913065      -4.06528745568996      -3.65376931277000
F         2.72335991993088      -7.72258365678334      -0.91632735642314
O         0.61925607752691      -3.72586975587782      -2.04076604391095
O         2.73089520700569      -4.59226802470146      -1.12324690559695
O         3.58734789844008      -7.06473291035502      -3.26380907837973
O         1.68936429034456      -8.61950761602865      -3.12005866855220
