26
C6H14BF4N optimized with DFTB in AMS.
N         0.86734876426802      -0.34889596995463       0.23717100155779
C         0.49941956312771       1.03120758299944      -0.25740642423047
C        -0.42490734317982      -1.09307483818478       0.46689323110179
C        -0.97969057249118       1.19101223165590       0.04772309904666
C        -1.52251360023387      -0.22412689703092      -0.13267569313406
C         1.63817175601451      -0.25257495091856       1.50699883015626
C         1.70033492805723      -1.04976167054943      -0.77918220638168
H         0.69151704695283       1.06653871311817      -1.33033020000207
H         1.13778132675378       1.76592315083830       0.23281444137397
H        -0.56542432154082      -1.21075790412378       1.54328951904181
H        -0.35956892779934      -2.08045987781240       0.00906898060881
H        -1.44763428816565       1.90468378962477      -0.63003550748128
H        -1.13136953258948       1.52766658442674       1.07694457227076
H        -2.47226046756444      -0.37889609681809       0.38029916069237
H        -1.65302653949348      -0.45067829800281      -1.19405382084310
H         2.57760971771466       0.26208016908232       1.30588041046680
H         1.05277950314729       0.30967001254012       2.23197430242136
H         1.83240815588858      -1.25761323388191       1.87719310265033
H         1.12079179948832      -1.15932748269841      -1.69341163092596
H         2.59002464016003      -0.44870244320212      -0.96392146886128
H         1.98204393053533      -2.02741834269399      -0.39209576734080
B         3.78173360683536       1.72423316759170      -0.36071525780949
F         2.89950495765504       1.58211074330286      -1.46583063918806
F         4.85360676745238       2.50486600661205      -0.66163860008405
F         4.16371367636034       0.41056284521789       0.02339149570211
F         3.01722669444667       2.25573106146156       0.71056179959145
