45
C11H20F6N2O4S2 optimized with DFTB in AMS.
N         1.22631406318530       0.24090803220634       0.29425810688110
C        -0.02276671207841       0.38812437260303      -0.52282836833100
C         1.11210824717430      -1.00776762530623       1.12456642387666
C        -1.28992666406402       0.41541040444068       0.32516079239358
C        -0.12587710484823      -1.02124246718673       2.00997864890445
C         1.44762667883700       1.42759942020776       1.19335082457770
C         2.36920860843035       0.07126545949204      -0.67519442868579
C        -1.39710906073085      -0.84382950476058       1.18430465806151
C         1.72671768344280       2.73880574009988       0.47939405448990
C         3.74091849478562      -0.07936797572208      -0.03633041066188
H        -0.05601163644483      -0.46414986628445      -1.20792783003211
H         0.06783893842962       1.30333444864507      -1.11106928665689
H         2.00492484417313      -1.07414118116649       1.74477081896648
H         1.09020226771354      -1.85101096344421       0.42794213407963
H        -2.13962961077717       0.47375438447044      -0.36036633140335
H        -1.31195527258556       1.30742234629484       0.95581103556048
H        -0.05044865918056      -0.24775377194863       2.77699270917674
H        -0.14501175401266      -1.98684341067813       2.52134142907163
H         0.56367448717694       1.53320661927285       1.82100577413204
H         2.28523622011467       1.17444988977381       1.84180959719182
H         2.13839741800937      -0.81629020573364      -1.27136060173836
H         2.35440871536276       0.93934874204637      -1.33829689582062
H        -2.26202839217097      -0.76318600631440       1.84640211395941
H        -1.54298455235635      -1.71535172929504       0.53726286040996
H         1.82036184327287       3.50181004029793       1.25188252563117
H         2.66253762184066       2.71083110986377      -0.07497820447278
H         0.91757065099975       3.02757324701279      -0.19052814968226
H         4.46519639279717      -0.18477444391929      -0.84396515489507
H         4.01525577589545       0.78911802626030       0.55720766158774
H         3.79889818975462      -0.96555990557181       0.59107822097620
N         4.13706273467596       1.11962893255958       5.03064476785509
S         4.28656798785529       2.25948674596392       3.91631020687880
S         3.29942778879424      -0.18659782640301       4.66112872607714
C         2.80941000838953       3.39135097464483       4.13609752956030
C         4.48225489247534      -1.33044598168917       3.73926193149072
O         5.40474289593300       3.08421313600334       4.27147832580179
O         4.17115875993398       1.82534788609866       2.53174895182194
O         2.20741480798196      -0.00523302371924       3.71066663922898
O         3.00557124728180      -0.88940311755271       5.87716491113056
F         2.96307144460011       4.45831129130727       3.35918345079987
F         2.68748141721246       3.78518780108477       5.38928850122927
F         1.68049137034834       2.78544387601813       3.76766086903000
F         3.81195967523712      -1.95217748497507       2.75930208080162
F         4.97211069595545      -2.24742856221477       4.55104594750027
F         5.48125634707911      -0.66482888878273       3.18807068074558
