40
C10H22F6NP optimized with ForceField in AMS.
N        -0.50881175109818       0.00173782339969      -0.00923263816341
C        -1.42918365462068      -0.56582317084816      -1.04239334665891
C        -1.40852165630760       0.60330380674874       1.02202181683640
C        -2.83541521225023      -0.07977759025448      -0.74699939648132
C        -2.82810413158066       0.15446929424680       0.73646951451654
C         0.34518278452823       1.06529087726264      -0.63191493291711
C         0.30406612086173      -1.09177329385387       0.61620979767455
C         1.35755733350695       1.72374355606855       0.33630475358254
C         1.30062247936987      -1.78112192321852      -0.34648793676752
C         2.06902485649906       2.89621150210479      -0.33314189684101
C         1.96790407043907      -2.97832089464198       0.32455501119205
H        -1.14621408742619      -0.28918794015578      -2.08393953367619
H        -1.46085023606753      -1.67935079323397      -1.01385868762440
H        -1.12812581471626       0.33166298210995       2.06558546063489
H        -1.40976538742209       1.71556566031447       0.97848589072848
H        -3.02408036157454       0.87827888121370      -1.28030276615911
H        -3.60533467076914      -0.82795526784033      -1.03688721121666
H        -3.03904083757226      -0.79713473788031       1.27267070118117
H        -3.57513434159238       0.92346662960156       1.02924130254331
H         0.90637205497360       0.65715435899399      -1.50118257219423
H        -0.30787155995562       1.86428046186116      -1.05449789565299
H         0.87393075761988      -0.70466894990450       1.48956907042919
H        -0.37857586038167      -1.86890829188942       1.03267447899271
H         0.84958057574497       2.09768282896476       1.24915622288758
H         2.13181500788851       0.99243982361753       0.64668981618605
H         2.10150795955546      -1.07538807447239      -0.64840797265887
H         0.78693202260824      -2.13465581907229      -1.26416288773605
H         2.63137173939062       2.54614292252647      -1.22478192148922
H         1.33443788707097       3.66962127619064      -0.64270679788433
H         2.78543513543964       3.35441228804645       0.38084185730765
H         2.53653323948964      -2.64922344457235       1.22022967131870
H         1.20580108870945      -3.72704015337039       0.62813490924185
H         2.67263992400962      -3.45879471363573      -0.38638008186511
P        -4.02560138385915       4.27955621552986       2.37865127874963
F        -2.40689547049167       3.71175723453294       2.29392751338254
F        -3.76471232539554       4.54190969991877       4.05663615210430
F        -3.46099372939800       5.84463732749497       1.94897925774166
F        -5.58775835326040       4.97715178578818       2.53844813726388
F        -4.27886802264356       3.89631320176930       0.72254543487721
F        -4.64825574302216       2.71993967683854       2.74196538691354
