54
C14H26F6N2O4S2 optimized with DFTB in AMS.
N         1.19557066417753       0.58074427991315      -0.36567409249046
C         1.90705577108010       1.18041068923093      -1.54330030830384
C         2.31417153524710      -0.07712115449998       0.38343004651879
C         0.55463091838814       1.63728425919084       0.49089398644953
C         0.20662855482188      -0.43454601990859      -0.85782171457353
C         2.95067815849220       0.14838627378643      -1.95551083650201
C         3.21981516838289      -0.67966800153917      -0.68826064284691
C        -0.61197331375150       2.35196504604070      -0.18504244005765
C        -0.63218499684354      -1.09657622137100       0.23389865473167
C        -1.14107826258293       3.45921164503603       0.73581710957148
C        -1.50806244042272      -2.18964688973534      -0.39167490758145
C        -2.20609285646099       4.28614565520527       0.02003430619674
C        -2.37900667380680      -2.86607226825783       0.66452760485455
H         2.39730587496525       2.09246270982043      -1.20039914305642
H         1.19405531191374       1.43117393667553      -2.32736821995716
H         1.91720141918398      -0.80886113639163       1.08568421399071
H         2.83490462448079       0.70633344641827       0.93642470453113
H         0.23486610633267       1.15136439183401       1.41608106429378
H         1.33712961807887       2.36066825739109       0.73119101372112
H        -0.44589593707601       0.07267343901781      -1.57168641213889
H         0.77315419163903      -1.19617726029779      -1.39785346864598
H         2.58639063667787      -0.48588152977898      -2.76610780442313
H         3.85262602892173       0.65789495559879      -2.29733476485972
H         4.26196118069620      -0.60483173973967      -0.37633391444613
H         2.98610225032051      -1.73381519391065      -0.85129754782315
H        -0.27651046062702       2.79779474338650      -1.12327401409148
H        -1.42321302126368       1.65282881796157      -0.40726178281229
H         0.01023373477046      -1.54322621412668       0.99744204617428
H        -1.27513589229439      -0.36044208594708       0.72187397113682
H        -0.31386645378158       4.11168500219993       1.02742859231621
H        -1.55996617369137       3.01185959683807       1.64364461756723
H        -2.14576614432473      -1.74527376631261      -1.16263020365015
H        -0.86899043548059      -2.93674572098175      -0.87370092739720
H        -3.04574030646132       3.65841788701784      -0.28238906166561
H        -1.78281980678284       4.75613211814463      -0.86801694143188
H        -2.57577618012756       5.06670017027014       0.68461779158334
H        -3.03795540687309      -2.13863408424715       1.13949743120195
H        -1.75872833112131      -3.32835956969319       1.43310926530968
H        -2.99073900571867      -3.63848112045356       0.19949964479144
N         3.55216196272656       3.94389015759261      -1.71226827084901
S         4.79403549303334       4.27724588657839      -0.74633026225015
S         2.14351795804195       4.60497336818502      -1.32447616683669
C         4.76683218712482       2.90025552954374       0.53251332908236
C         2.20843677771564       6.45015791591188      -1.67261571812430
O         5.99646152503936       3.98720777331765      -1.47333553506984
O         4.69450923470496       5.50016654845125       0.00122261306034
O         1.77572750995977       4.49208734324251       0.07671407778585
O         1.18663553514594       4.08194443096559      -2.28013036807108
F         5.79447673148137       2.98240697517019       1.35422649014993
F         4.83418830315991       1.72159264463082      -0.10858673033264
F         3.64737774916100       2.86992851053549       1.25511893054494
F         1.06913988116606       6.80613965276675      -2.24650509116342
F         3.20489778777379       6.72248267424763      -2.49356052753054
F         2.35338706118724       7.12917811527521      -0.55550166628117
