63
C17H32F6N2O4S2 optimized with ForceField in AMS.
N        -1.08732017385355       0.82815098515410      -0.17695257168904
C        -1.57907901308174       1.86374854797471       0.78970481489266
C        -2.05980801449415       0.73648587116988      -1.31428768301450
C         0.21268282054891       1.29849041514998      -0.76782537176275
C        -0.92938090770549      -0.48773738097007       0.53522538777529
C        -3.02363310825311       1.62682714709060       1.27944570801617
C        -3.50511370300056       0.43994651483009      -0.88251066121484
C        -3.99254931393473       1.49395911610597       0.10703030338290
C         1.41790145399882       1.36659288640260       0.20316286113396
C        -0.34336362153657      -1.64350917591841      -0.31217867500792
C         2.66175234169132       1.88560769718673      -0.53169650057069
C        -0.21631024169579      -2.91470379665227       0.53465480129886
C         3.88286114646457       1.92931925005367       0.39351610813956
C         0.36683123678050      -4.07442474184388      -0.27719998566037
C         5.11239846840384       2.44658943053198      -0.34878195871039
C         0.48085732170057      -5.33487356039155       0.57627888390911
H        -1.54875389720254       2.87624728507740       0.32447616854898
H        -0.93100760048239       1.90750403646005       1.69131236583471
H        -1.74557371949895      -0.02161780909193      -2.06111992061030
H        -2.08239400051327       1.70117845758889      -1.87420312641874
H         0.08165909766799       2.31525741975900      -1.20639702206563
H         0.50062692312817       0.65380244408389      -1.62835023887051
H        -1.89998483941766      -0.84285200288724       0.93181108116374
H        -0.29770260391682      -0.35768754576139       1.44161843991906
H        -3.33734362326894       2.48965912177770       1.90572556079566
H        -3.08325641399169       0.72862374163409       1.92870648326223
H        -3.59594239516125      -0.57701911217170      -0.44869050689842
H        -4.15889860707432       0.46317862041045      -1.78113735488437
H        -4.08258703849946       2.47436388735664      -0.41078963352353
H        -4.99889875384240       1.21160509634381       0.48442825073804
H         1.19954447965064       2.04903448526683       1.04974881056659
H         1.65424253747099       0.36054353295074       0.60611108652414
H        -1.00799155452392      -1.87060446326861      -1.16963291697898
H         0.66348807405971      -1.38217883691160      -0.69534229700082
H         2.45909231111659       2.90828021033112      -0.91979864429678
H         2.88325832250619       1.21922918823560      -1.39481636196331
H         0.44880550439059      -2.70962803480383       1.40211235184245
H        -1.22291030550999      -3.20458822677806       0.90959752889248
H         4.09828396146280       0.90897316492724       0.77932649503131
H         3.67540748402377       2.59683417400483       1.25800889140840
H         1.37681779841575      -3.79833853192888      -0.65070237417306
H        -0.28780249985079      -4.28718466068921      -1.15018210426549
H         5.98303020993548       2.46780514685383       0.33968608893355
H         5.35372660569740       1.78215059908822      -1.20588026613299
H         4.93134968007538       3.47622053674871      -0.72459167256637
H         0.90883440559435      -6.15863446553372      -0.03252038986759
H         1.14638019975337      -5.15320860169343       1.44719551909307
H        -0.52112162692182      -5.64617348351038       0.94176454998329
N        -2.94921328667285      -3.13365257746681       5.22506221730813
S        -3.59902636201506      -2.46995891565340       6.57445625312418
S        -1.33257109907146      -3.25234840683886       4.98575353126509
C        -3.88662494857147      -0.73467943172288       6.29416759093478
C        -0.80497114024678      -4.90814843196725       5.37091739048796
O        -4.91177333483078      -3.13892968257069       6.86718285404403
O        -2.67467599452839      -2.64175946070675       7.74775671428877
O        -0.58646556196395      -2.27238166822630       5.84784335645220
O        -1.03336790656879      -2.97533136352722       3.54278370533392
F        -4.45826872641260      -0.17419842902998       7.42046160866618
F        -4.74076771731957      -0.57541211055873       5.21947162420926
F        -2.68940514520500      -0.09967419420818       6.02423101978438
F         0.55946939749877      -5.01466912762233       5.18000566694978
F        -1.45432067011150      -5.80496861064835       4.54383921530215
F        -1.10792719808641      -5.19722937949546       6.68772549301039
