51
C13H24F6N2O4S2 optimized with DFTB in AMS.
N         1.33257905630887      -0.04904262755194       0.17410159035419
C        -0.16498347918030      -0.13980190744733       0.09678021051804
C         1.92674064249493      -1.29976898562666      -0.41053942608386
C         1.74135679240077       1.12401904162188      -0.68281376158823
C         1.78872670127847       0.11392379714004       1.60299364731269
C        -0.73392217632443      -1.39693878871949       0.74735294245693
C         1.41872555961365      -2.56486032476145       0.26371289361952
C        -0.10068808704141      -2.65822183133147       0.16033135403503
C         3.25187218132387       1.36455005131749      -0.77915650916586
C         1.58483942008988       1.49853029812583       2.19259345874026
C         3.83097416796896       0.96119513449678      -2.14056985170004
C         5.35212882708754       1.10028478222108      -2.13643022596860
H        -0.42828434537604      -0.12713665397714      -0.96467892996573
H        -0.57393415846019       0.75601769779687       0.56899738753961
H         3.01009516412780      -1.23206928780569      -0.30970097870384
H         1.66362534952691      -1.30945608040722      -1.47197037771799
H         1.23459472623858       1.99860885028963      -0.27063295662831
H         1.32414708638694       0.93598449571068      -1.67657897913675
H         1.25146670159559      -0.62427889213870       2.19808014546344
H         2.84876879374527      -0.14365833003504       1.62973150287652
H        -1.81135652633575      -1.39708148468904       0.56084406840112
H        -0.58788700017370      -1.37243224600879       1.83013634540843
H         1.73217084686034      -2.59528897211646       1.30878332814283
H         1.88913396128018      -3.41065228889460      -0.24308520954499
H        -0.45870217759510      -3.53453320781042       0.70497205200428
H        -0.39573008766038      -2.76334483205708      -0.88890251175122
H         3.78549362511602       0.82367994634781       0.00099552895490
H         3.43873816936767       2.42916003148465      -0.61264472481676
H         1.82579199165991       1.43011485676945       3.25333132627005
H         2.26309257786537       2.22377950810906       1.74752549716700
H         0.55721140046742       1.84671292031432       2.09244105886039
H         3.40024653835887       1.59325041611789      -2.92490739563325
H         3.56580353964753      -0.07675657045759      -2.36561877203145
H         5.79025090490682       0.43668282706761      -1.39104518109573
H         5.64250947097555       2.12536604523081      -1.90452022672773
H         5.75110369610200       0.83696881142741      -3.11568394820622
N         4.79956102951311      -0.75566146463512       1.22871805128486
S         5.39038106533650       0.25331749184602       2.33998052336045
S         5.13656671163732      -2.32015043956126       1.37840298528884
C         7.17680759377373       0.59571323793631       1.89316175596832
C         4.21386443041436      -2.94383011018966       2.89497692454414
O         4.71845530201083       1.51282667656311       2.09423443799477
O         5.39916125118587      -0.26168902678547       3.68500578584412
O         6.52119775018183      -2.64136916986308       1.58990729983243
O         4.43123603075612      -2.96093810452156       0.28951389022852
F         7.49803885781455       1.80712822210103       2.31652708581712
F         7.31104638838884       0.55881147486495       0.57346824026751
F         7.98631766865900      -0.28330928017248       2.44070066788785
F         3.71709317372120      -4.14396594259847       2.62737956121578
F         3.17992897231066      -2.12820075304456       3.13822391064130
F         4.96884675654756      -3.01907112969300       3.96451150346535
