35
C11H16F3NO3S optimized with ForceField in AMS.
N         1.74216852197359      -0.02949986426347      -0.50201978798035
C        -0.63677215777844      -0.00338592356838       0.10988882185951
C        -2.07449118933505      -0.02212828025117      -0.41865918412024
C         0.37562338918795      -0.06855400664924      -1.03527528663784
C        -3.07717778090690       0.03547370321769       0.73859956504350
C        -4.51346463627584       0.03229305417484       0.22608963839480
C         2.37535918984611      -1.19691159302853      -0.17223475434222
C         2.35872618003686       1.17543331999076      -0.29988420113983
C         3.65614346182850      -1.17575776470622       0.38377514359419
C         3.63967361436948       1.23164389404671       0.25402204084086
C         4.28807625478523       0.04745491126855       0.60070567213745
H        -0.47847299567573      -0.87463540638881       0.78292115488871
H        -0.46856817871257       0.92871196379607       0.69265072355919
H        -2.24067114800573      -0.95289223008079      -1.00531488337799
H        -2.23206616951898       0.85199237470032      -1.08878349254029
H         0.21687137958350      -1.00524770891143      -1.61430527353933
H         0.21116910945656       0.78255225458235      -1.73398444028781
H        -2.90991241138206       0.96002876518560       1.33333750452711
H        -2.93067593438181      -0.84314737372534       1.40428761112493
H        -4.69244845296656       0.91533150067639      -0.42365458306614
H        -5.21363881859284       0.07632163362070       1.08672215487845
H        -4.71494498182404      -0.89593027753784      -0.34984510284436
H         1.88722411789206      -2.15213075858629      -0.32661473675187
H         1.85762836351245       2.10170777835573      -0.55601917754037
H         4.15039750808501      -2.10069165013952       0.65072468868751
H         4.12165130450654       2.18636277088086       0.41953197183666
H         5.27653990346470       0.07766662080045       1.03997469493526
S         0.11068868679773      -0.89972098759657      -6.67985688960123
O         1.57358083299637      -1.27871233585020      -6.95310901877115
O        -0.59671835047682      -2.26198191095765      -6.63231497336319
O        -0.35397149552427      -0.31053805571181      -8.01951093758707
C        -0.15223900847941       0.15702644337867      -5.22838365321492
F         0.51901188036440       1.35279748415661      -5.39457688752559
F         0.33083850136041      -0.48706846852039      -4.10916506482025
F        -1.50208915411041       0.40495676604137      -5.07006627805608
