39
C9H20F2N2O4S2 optimized with ForceField in AMS.
N         0.25912280745482      -0.10795445598793      -0.17550299846409
C        -0.60034455230551       0.69780569372756      -1.10271230578902
C        -0.49906558085715      -1.33135273156395       0.24571745345279
C        -1.97391989920258       1.06993447052146      -0.51947762028681
C        -1.88799599190196      -1.03362329407574       0.84618431643315
C         0.66137179268623       0.67928455220411       1.04210000685314
C         1.45883355054051      -0.53844417641796      -0.97113032128122
C        -2.73214577099093      -0.18502250809447      -0.09969873962471
C         1.52748451311939       1.92466991399130       0.77783680447553
C         2.52425170626589      -1.34039044941699      -0.20075859853068
H        -0.79407426341735       0.12353822214854      -2.03915804369748
H        -0.08718027303507       1.62512426170567      -1.43175230898739
H         0.06638313854531      -1.90620220949114       1.01034092866133
H        -0.65023132225195      -2.01363716295591      -0.62262719806143
H        -2.56387928403446       1.59988812802796      -1.29837810125522
H        -1.87253517452047       1.76917012392561       0.33576135045013
H        -1.79501915995940      -0.53074226668222       1.83116208688758
H        -2.41419334744340      -1.99577032854170       1.02801885605057
H        -0.22443857563669       1.02820486089472       1.60659770144452
H         1.20744273309627       0.03062007125866       1.76073060979105
H         1.14298244920115      -1.16707364765618      -1.83557224428168
H         1.96209707346995       0.34136515384284      -1.42546699821218
H        -3.67928218132395       0.10396181069291       0.40491730892193
H        -2.99129977896856      -0.78218756338821      -1.00193995167479
H         1.77094411718930       2.40095083069574       1.75100273283051
H         2.49070590010704       1.66924445902873       0.29437064558832
H         0.98656360940356       2.68047752351279       0.17517663660485
H         3.33554807707601      -1.62201244193985      -0.90487872760913
H         2.98911505667322      -0.73938312115622       0.60567786550215
H         2.11200008964629      -2.28085779039336       0.21457740204990
N         2.81830589063685       1.97422873289490      -5.75762703391416
S         2.30915482110525       1.54673588287285      -4.26271167218206
S         2.35005659973129       1.13889885427043      -7.08510654861383
F         2.98042755097625       0.06738534952833      -3.85742907152951
F         0.81607638135802       1.63711229175957      -7.53404307834391
O         2.73910897443850       2.58496896659283      -3.26594656608588
O         0.81168445296794       1.42292526931448      -4.25121311916530
O         2.31757438382472      -0.33375865237005      -6.78635575922573
O         3.30722628133565       1.40724480371989      -8.21101903678125
