58
C16H36BF4N optimized with DFTB in AMS.
N         0.20032847385736       0.14475343082665      -0.29475287266216
C         0.98909738244951      -0.81144668061880       0.55974754366091
C        -0.61013537892156       1.04423487387058       0.60926731111021
C        -0.67831601001263      -0.64388200894197      -1.22195498814538
C         1.11426061334886       1.01495982056131      -1.12171510208865
C         2.04461579868656      -0.16480795920105       1.45457563545546
C        -1.66083398055878       1.89970305142476      -0.09423330663594
C        -1.72828405904228      -1.51971510658618      -0.54017880530639
C         2.10313344260975       0.28104955968501      -2.02009446383240
C         2.77416417727581      -1.25591965966423       2.24613064377055
C        -2.19916818541611       2.93210678195312       0.90541869383219
C        -2.62758568195514      -2.15539218455127      -1.60822125031691
C         2.97006868352914       1.33097262319429      -2.73130031962564
C         3.84218651495284      -0.64257720288739       3.14949476065299
C        -3.29815733199223       3.78250984607326       0.27419425344435
C        -3.68860643601181      -3.05010789557554      -0.97129782921564
C         4.05390609238099       0.66897989244677      -3.57732187094644
H         1.45739789557941      -1.53350039907477      -0.11465184446993
H         0.26899801308671      -1.34638149727546       1.18387461718793
H         0.10524701082077       1.70365235196695       1.10377207606886
H        -1.08292082646401       0.40893584373087       1.36228901673163
H        -0.02262658238844      -1.27593992288868      -1.82502871628516
H        -1.16533582111075       0.07420773599433      -1.88551729272661
H         1.66069148609939       1.64861456901420      -0.42485359830487
H         0.47493100722506       1.65993044352658      -1.72618103813655
H         1.57827396113217       0.53554010006477       2.14915253741798
H         2.77004067608732       0.39432248907074       0.86170126097538
H        -2.48487930387489       1.28521153604103      -0.47007211620089
H        -1.21436964808014       2.43656275835166      -0.93313757491284
H        -2.34555831370101      -0.92957713161988       0.14068163167200
H        -1.24727981540578      -2.31218893617822       0.03926822058819
H         1.58855604214614      -0.33144933263958      -2.76741664964731
H         2.75082303923492      -0.37475893733388      -1.43185929857841
H         3.24213022513206      -1.96300972391647       1.55199675236384
H         2.05287918661148      -1.81215521739838       2.85515669240834
H        -1.37361485471853       3.57695805957633       1.21872602006865
H        -2.59109845540222       2.41885168916447       1.79029200739681
H        -2.01391976730612      -2.74671408958692      -2.29579290992947
H        -3.11571878008635      -1.36546960956588      -2.18828973925445
H         3.42943902934758       1.98277996961634      -1.98294280040286
H         2.33306420942824       1.95145537857449      -3.36953168128706
H         3.38861667867380       0.05173701227181       3.85707051388913
H         4.57746252475783      -0.10029207638395       2.55461194481754
H         4.35347025549532      -1.42693673293315       3.70758016568227
H        -4.13414729959477       3.15865857150903      -0.04759449833676
H        -2.91161065265586       4.32066277073825      -0.59183982975812
H        -3.66539929261215       4.50925173942952       0.99869426323151
H        -4.32077027456365      -2.47192831016259      -0.29649870455493
H        -3.22003977025010      -3.85567309300945      -0.40479499878015
H        -4.31659826695142      -3.48897807168569      -1.74617989704101
H         3.61093598063282       0.02246445997764      -4.33709024215816
H         4.71475795331146       0.06726649893690      -2.95159886095821
H         4.65006703714455       1.43276682170449      -4.07629588206563
B         1.84291580092321       3.70096070420830       0.59026066884461
F         2.86869231718510       3.31611574088640      -0.28910091680794
F         1.74925580250402       2.69328303322803       1.59976419204823
F         0.61277666074176       3.65374893015710      -0.12284946931499
F         2.05553763178472       4.93127618110339       1.13845509516826
