49
C15H31NO2 optimized with ADF in AMS.
N        -1.58776521841176       0.18282257426338      -0.15874899480608
C        -2.62851782398382       0.32670738313703      -1.24316905549433
C        -1.73331526304591      -1.17697133668851       0.48577722996679
C        -0.21417811175076       0.28807077024080      -0.83099249066755
C        -1.72169921701954       1.27752556986215       0.90890700805439
C        -4.04321901955762       0.10947218907075      -0.73379383130983
C        -3.14475258348739      -1.48829626771789       0.96662236361857
C        -4.18313698268918      -1.29028440204197      -0.13570857453497
C         0.95893732152405      -0.19637169021613       0.00232572312533
C        -2.01277264404081       2.66160336738135       0.37085541745085
C         2.25915633509476       0.12494381456886      -0.74486456382597
C         3.48443588578963      -0.04252968129735       0.14960630220945
C         4.78564164578666       0.33282761467724      -0.55463955345364
C         6.00839455503325       0.18333063946876       0.34715293474093
H        -2.38148797749772      -0.43367757099663      -2.00198161840253
H        -2.47858083062105       1.31775939567863      -1.69163683168697
H        -1.01248405074864      -1.20903851074531       1.31346716689654
H        -1.41713011321886      -1.90679715638015      -0.27826103500834
H        -0.04907176228345       1.36794099354552      -1.03154832457109
H        -0.29942131992017      -0.28346252688156      -1.76978982270164
H        -2.49782735207911       0.93724117260275       1.60659539383462
H        -0.73312935447922       1.34091278988430       1.40423304315765
H        -4.73221306501828       0.24797250394939      -1.58365175222387
H        -4.30462118885284       0.87589917748812       0.01463011966053
H        -3.39911977493065      -0.86661792225098       1.84108466724615
H        -3.14223782956238      -2.53221030145345       1.32418467972990
H        -5.19899679364018      -1.44874989040924       0.26017247987088
H        -4.02498134116048      -2.04218130497824      -0.93103591330718
H         0.98113504992450       0.37241161088087       0.94717219407673
H         0.91283393268797      -1.27931161471068       0.21072371051723
H        -1.21683649664405       2.97896038457386      -0.32625921125118
H        -3.01753116797081       2.77599864408682      -0.06193730126377
H        -1.92636870475969       3.34280621263329       1.23206380643555
H         2.20753939861700       1.17204915415230      -1.08897451592349
H         2.35421013056146      -0.51731226585016      -1.64168018151603
H         3.55109596735443      -1.08565298613687       0.51619402196666
H         3.35226695751393       0.60021441634788       1.03937415803827
H         4.90877371653807      -0.29357834542729      -1.45795808680637
H         4.70731640038769       1.37696843912740      -0.90784245949079
H         6.11567599674124      -0.85579826334608       0.69898936542219
H         6.93559045489510       0.45970100695560      -0.17842806649672
H         5.91813066915732       0.82838511813415       1.23608511815661
C         2.47338786653143       4.15255162590659       0.80581648996448
C         1.32615780151045       3.16810400509096       0.54253147506033
O         0.93163206139066       2.49437997605017       1.54451691339191
O         0.87665295926916       3.11386441542073      -0.64754095829970
H         2.11122969865947       4.96257258920180       1.45880614857719
H         3.28417283966881       3.64539811433340       1.35037963491752
H         2.85420297903731       4.58688590371367      -0.12848319924521
