38
C10H20F3NO3S optimized with ForceField in AMS.
C         2.71631224018499       0.35313279948189       1.53838956415094
C         1.65399106841613       1.28451027594585       0.97226717858289
H         1.40515748999608      -0.82765378521492      -0.91350132799247
H         0.43497580803667      -1.69999482852029       0.32042992259271
H         3.20433249252798      -1.42296696677915       0.37353508309858
H         2.17799268706282      -1.72287997258782       1.83504688676994
H         2.66994923022986       0.35037947966333       2.64958521630050
H         3.73361618491923       0.66936495377521       1.21899952528912
H         1.37277887246473       2.06617090483321       1.71555749079126
H         2.10605446886048       1.81237838293230       0.09933355303660
H        -1.17680304309787      -0.51018115170639       1.51579100691692
C        -0.40890842988328       0.26683893036282       1.72022775183132
H         0.15155816938990      -0.06949550191684       2.62048587912855
H        -0.92934220866693       1.21619104780102       1.97669285381423
C        -0.20260728905194       1.14278325286262      -0.58137690228619
H        -0.33462193854302       2.21996594987189      -0.32650711997544
H         0.43225716213798       1.13427080674139      -1.49705368751290
H        -2.30770933702788       0.68116657363630      -0.08845174335899
H        -2.98181157294348      -2.10141246915003      -2.63636804819007
C        -1.63618119948085      -0.78019113605829      -1.56540732008113
H        -0.82711988232040      -0.88446444913435      -2.32047108362238
H        -1.49276853719453      -1.53784287462493      -0.77050012376319
C        -2.97766141891854      -1.06558174072361      -2.23703533341799
H        -3.14793841404950      -0.36159339057967      -3.07922133160755
N         0.49534521105682       0.45731026258338       0.55520565672471
C         1.11046492307218      -0.83249604369607       0.16080771368759
C         2.37419048964181      -1.02079198760211       0.99467934745933
H        -3.80513452872884      -0.96399329895151      -1.50241999600314
C        -1.61536064015119       0.62662063217378      -0.95394235261403
H        -2.02251979748127       1.33831574688010      -1.70509323174856
S         0.00705778782463       1.55619474424020      -5.20919664758973
O        -0.65821461297993       2.10730928637854      -6.47926649577115
O        -1.17574688854931       1.38681798503726      -4.24584212379880
O         0.74465451499623       2.77893784368418      -4.64323363787169
C         1.02913282372317       0.07391087799581      -5.45007735185075
F         2.02229200138946       0.34348568147553      -6.37274786258972
F         0.23960223219100      -0.96099437790231      -5.91442300438098
F         1.60486406724662      -0.29100895940834      -4.24771775614836
