44
C12H24F3NO3S optimized with ADF in AMS.
N        -0.59388593291360       0.36937005340825      -0.03887419821138
C        -1.31153929566124      -0.76727156963742      -0.73253135195690
C        -1.58758674074795       0.76064379548303       1.04773086719514
C         0.69402033928183      -0.10358132410551       0.62182523305024
C        -1.95833375290078      -1.57386666130287       0.39377899066722
C        -2.16227804097858      -0.56152285650983       1.55266958174723
C        -0.34681078110162       1.51669075671246      -0.98832751379500
C         1.79472280630028      -0.53813525347718      -0.32723948267509
C         0.33550918289419       2.71433064103171      -0.34879933066364
C         3.00991612892919      -1.00299504288645       0.48598977815492
C         0.38653950107407       3.88595985868801      -1.32692299045905
C         4.17158592818879      -1.43862181044486      -0.40183016480386
H        -2.07021194014938      -0.29840810938734      -1.37823803266451
H        -0.60431394071329      -1.32392831748402      -1.35955700064618
H        -1.06027160577566       1.34834522200665       1.81057812220596
H        -2.34958197524252       1.37573640013992       0.54430450879217
H         0.40978993793811      -0.91280485246386       1.30732630541270
H         1.01212935807801       0.72878275947845       1.26650985527587
H        -2.90394620490712      -2.01360969524679       0.04500655398854
H        -1.30988592165277      -2.40536996463811       0.70679222618152
H        -1.63191560894402      -0.86895730381693       2.46501747119629
H        -3.22356880737663      -0.43328278153123       1.80728710144641
H         0.24125015033113       1.11963074962387      -1.83042684201495
H        -1.33970268075281       1.79839188970563      -1.37655526332438
H         1.47060563543489      -1.36358503941681      -0.98629927219409
H         2.10825282882484       0.29478292715473      -0.98055765910416
H        -0.19235132669491       3.01119159096327       0.56999518047021
H         1.35622776765712       2.45210769282139      -0.03066347291610
H         3.33126707834701      -0.18475853849242       1.15350900127720
H         2.71019257591154      -1.83486328316722       1.14703409183726
H         0.94551802446175       3.63086271349067      -2.24136722026125
H        -0.62415168274024       4.20919577385789      -1.62351276091254
H         0.88703326443524       4.74275609470947      -0.85346867507090
H         5.02578923752526      -1.76620004177599       0.20872505472160
H         3.88366753427020      -2.27736523438272      -1.05633433632924
H         4.51538605659616      -0.61174558847333      -1.04393867063114
S         0.69025742846305       1.32702687449240       3.98876120480061
O         1.79868660095105       1.49705222152968       4.92451428166243
O         0.26387193772327      -0.06058767277685       3.70635174370488
O         0.72954723957167       2.19028498716521       2.77583717785287
C        -0.79463102566859       2.02779437942633       4.90322343420668
F        -0.60462929218054       3.32839693387152       5.24077734892424
F        -1.05566539212836       1.32928218263598       6.03646577443755
F        -1.92596806475804       1.97145154262120       4.12087458272461
