30
C8H12F2N2O4S2 optimized with ADF in AMS.
N        -0.30686453232061       0.06225086769666      -0.12857601200830
C         1.10003353442789       0.05917557341327      -0.59950951237817
C         2.07708325497012      -0.15374068480765       0.55093090949799
C         3.51411124715839      -0.15796683964671       0.04122782106892
C        -0.86101410722738       1.21886595406644       0.29606615393256
C        -0.96896825058604      -1.10950372388311      -0.01561879813895
C        -2.13298708537863       1.22940360381381       0.83416730060291
C        -2.24820115803063      -1.14463862376782       0.50046590968086
C        -2.83764618259270       0.03512786749697       0.94132789420552
H         1.18086716279609      -0.73526062257561      -1.35762355316910
H         1.26953432633044       1.02432028272518      -1.10187200319098
H         1.83318317182854      -1.10083360750271       1.05953513603670
H         1.92466861557230       0.63917245812472       1.30058304066671
H         3.68973280783174      -0.97478533290965      -0.67680231980006
H         4.20922732661055      -0.29589532967016       0.88206700275932
H         3.77222360496403       0.79253396192133      -0.45250271018528
H        -0.23987315380654       2.10811779208475       0.22388826049860
H        -0.42567562720094      -2.00379770228169      -0.31101830676172
H        -2.53968722106702       2.16712060128541       1.21156539356909
H        -2.74303349795761      -2.10781964654645       0.61564709300591
H        -3.82291237997647       0.01768061170793       1.40838716723841
N        -0.07364665057547      -0.50351944892735       2.84518259962948
S        -0.26280907404648       0.89733319878794       3.60218217228353
S        -0.58558470849401      -1.91458242515495       3.41019539129560
F         0.57461208456051       0.73441741967523       4.99986365608583
F        -2.25162878507110      -1.77208391235465       3.37775077329327
O         0.48979836517704       1.88218790100853       2.83248980457370
O        -1.62188151967193       1.20811078446206       4.00955137475036
O        -0.29087827408565      -2.20978451146660       4.79412670236629
O        -0.31666843003843      -2.88759081197512       2.35840920489102
