33
C7H16F2N2O4S2 optimized with ForceField in AMS.
N         0.79353813359641      -0.04463620722381      -0.07104650373719
C         0.04633104676783       1.19831403051559      -0.42236656963467
C         0.02042870946133      -1.26011499674157      -0.45980014819692
C        -1.38025829801755       1.23303835422023       0.15326304593843
C        -1.41151613075793      -1.27960339239132       0.10639055674993
C        -2.16529354638715      -0.00598463996122      -0.27312161655307
C         1.12982162044573      -0.07090446108204       1.37525197374413
C         2.07228017607921      -0.04437320916719      -0.82438375286373
H        -0.03847677328444       1.29589009849516      -1.52992718845246
H         0.59421963075108       2.10029941017772      -0.06511058730421
H         0.54617570895663      -2.18275150898860      -0.12293926694660
H        -0.05932804713302      -1.32658590657002      -1.56982941662255
H        -1.90095104549814       2.13954140687190      -0.22427437996890
H        -1.35727080621463       1.31047044015765       1.26039433585265
H        -1.39876331663625      -1.40198737040205       1.20955852143899
H        -1.95226301799541      -2.15696830104067      -0.30971278674622
H        -3.16042943851853      -0.00244077332169       0.22117030727914
H        -2.32778847532077       0.01644048647933      -1.37343026604026
H         0.22990013331121      -0.09054502416423       2.01994100418816
H         1.73768143065647      -0.96763394668354       1.63011387935874
H         1.71534304513176       0.82829064568201       1.65841939214461
H         1.89565489040205      -0.02713906340127      -1.92337385369621
H         2.68877359385350       0.84725355644627      -0.56868116771699
H         2.67470470650156      -0.95233954788672      -0.59452916652879
N         3.56808570839437       1.50851731687277       3.61066899437468
S         3.69903530977057       2.84061647349691       2.66829142606999
S         2.53029105330055       1.45515270514709       4.87473759642169
F         4.67601421565050       3.96334174634298       3.43424950975078
F         0.95482332012338       1.49663797348187       4.30924043070402
O         4.31720205973213       2.46439542315930       1.35170211838236
O         2.34399192912797       3.44958999406266       2.43906048098035
O         2.75439579776782       2.64345136092172       5.76681736312148
O         2.74909440298174       0.18824322249478       5.65191460410862
