37
C9H20F6NP optimized with DFTB in AMS.
N         0.93306702036107      -0.00085388287190      -0.00751719067203
C         0.35026188061712       1.32769387006087      -0.40064698078067
C        -0.13115942757513      -1.05175499590859      -0.04630190233682
C         1.99323001981202      -0.31870963844647      -1.03682218095248
C        -0.85536165717956       1.72415933411820       0.44000747756379
C        -1.34413562590300      -0.69776267593594       0.80766312431392
C        -1.93603066498750       0.64607540106658       0.38629461057942
C         1.54640834506549       0.09259922617796       1.34645687843946
C         2.76048313005641      -1.61842572027989      -0.80859684461487
C         3.84036046250558      -1.74254939352855      -1.88438248050658
H         0.05974995372857       1.24846709967563      -1.45186554329594
H         1.14788660217116       2.06654982058071      -0.30617145019350
H         0.31329169772401      -1.98660667870419       0.30024090407427
H        -0.43099731776156      -1.16729645086764      -1.09190075110751
H         2.69041519883025       0.52024684603501      -1.02768090304393
H         1.48776365117461      -0.34852562050482      -2.00622669548882
H        -1.24347352747377       2.66082598786522       0.03204625404837
H        -0.56074698679320       1.91217309900618       1.47540325275288
H        -1.07144086359459      -0.67400370183566       1.86594909563931
H        -2.08412200370010      -1.49103347581808       0.67270868885019
H        -2.75961001227981       0.91113800668314       1.05321555717709
H        -2.33177317512858       0.56990046313028      -0.63174902431503
H         1.92634750393358      -0.88384342628609       1.63520715144774
H         2.35900275722428       0.81306186229610       1.31042606469247
H         0.79952084609422       0.41569078529464       2.06595933660953
H         3.24608822684298      -1.60539638742742       0.16844719155471
H         2.09004372704686      -2.48215948701476      -0.85641361931908
H         3.39594320038285      -1.74707336423781      -2.88039864592130
H         4.53538720265380      -0.90627496088767      -1.81190181286652
H         4.39153127699749      -2.67078943425988      -1.74034553851511
P         4.67386550020577       2.09484781984864       0.58236492842764
F         3.15315885966394       2.35139237601238      -0.13876340892345
F         3.90407401456864       2.09146202243913       2.05000320563024
F         4.36739376226144       0.43938340487331       0.48033407571176
F         6.10162814014705       1.79203979600946       1.29036406565478
F         5.33411085798349       2.03581898684826      -0.91209904067102
F         4.88989787592407       3.70174953769368       0.67009381315706
