34
C8H15F2N3O4S2 optimized with ADF in AMS.
H         0.77485275192847      -0.74017737530315      -4.74689537292550
H         0.72257950312078      -2.01856176844458      -3.47486046713931
H         2.29870838046471      -1.42539622311156      -4.04053405311669
C         1.25735159868605      -1.13848795472987      -3.84457915854516
H         2.19098044281400       2.56840122755500      -1.19560911413284
H         2.65491318147348       1.28964803963610      -3.62819986500621
H         0.01118665762456      -1.05250448038517      -1.30737071774937
N         1.25009362816268      -0.11928027055096      -2.79836475171583
C         0.59298317941053      -0.20254457314402      -1.63319893559110
N         0.87917497764723       0.88615197249944      -0.91103093844023
C         1.75728131722544       1.67297006504187      -1.62291053030149
C         1.99057107127692       1.04304950445791      -2.80937569319706
C         0.47777593100529       1.13908471243914       0.48390266040017
H         1.33205454676890       1.66295700013265       0.93619553761346
H        -0.39842412996844       1.80771000400118       0.46847534833802
C         0.20700337140557      -0.14216358316469       1.25655759336662
H         1.04757876379909      -0.83460647103247       1.07874130622314
H        -0.72274710840849      -0.62371448285463       0.90195221437509
C         0.08956351466545       0.14900212573697       2.75288731481790
H         1.02684566101411       0.62672157662720       3.08852464477336
H        -0.72364056607493       0.87589350799726       2.93243923780861
C        -0.15734091112045      -1.11867972710547       3.56606227764301
H         0.65905241793047      -1.84177996131892       3.41384554022762
H        -1.10047248089678      -1.60491962000742       3.27018710644356
H        -0.21510598456239      -0.89432469923783       4.64200043400775
N         3.15392665068996      -0.90355015215842      -0.28115631239409
S         4.32432383558256       0.09300007115934       0.19136346659313
S         3.41127062764035      -2.17228487132830      -1.22601297516745
F         4.79397080098887       0.83973839214571      -1.21900487489417
F         4.30992176358793      -3.19302502922108      -0.31322195310124
O         3.66935119764054       1.16190166071154       0.93429155481095
O         5.53342179330111      -0.52600535118910       0.68680886264323
O         4.21772538118679      -1.92428352188252      -2.41050797178944
O         2.12458542738965      -2.84288504877114      -1.37120379067846
