52
C16H34ClN optimized with DFTB in AMS.
N         0.19334005384922       2.04621304226236      -0.23116831951352
C        -0.41997251972628       2.97529793062520      -1.23143319919730
C         0.89364789854955       2.97905910963476       0.71594578505904
C        -0.86613265630123       1.28891447507519       0.52236377441441
C         1.17088313136929       1.13677924338082      -0.91361634723572
C        -0.88725293580953       4.18707667005227      -0.42722378877172
C        -0.04012880470816       4.17395883366980       0.85641866936224
C        -1.62200729569052       0.24991838375412      -0.29834103242010
C         1.82049929820171       0.10831614377960       0.00972520090339
C        -2.67672271818090      -0.40987675253602       0.59902274494260
C         2.98579789236719      -0.57130069559552      -0.71541925955561
C        -3.44387697464557      -1.49637769025560      -0.15935352169998
C         3.61540622481007      -1.64892647362206       0.17321733779410
C        -4.49629723215281      -2.15659121517310       0.73706274749765
C         4.77710348035534      -2.34727039318837      -0.53944314087532
C        -5.26881751356995      -3.23872135438493      -0.01514491767611
C         5.40820856964492      -3.41891422553747       0.34798075091531
H         0.35978721457504       3.25738606618401      -1.94317455465977
H        -1.22349027445149       2.47036126868624      -1.76658169124369
H         1.08346774568305       2.45574049935844       1.66144351094432
H         1.83916593784450       3.27113944565476       0.25300112656530
H        -0.36468003188912       0.81557254667510       1.37555463019185
H        -1.56534813804082       2.03128622656485       0.91203433498794
H         0.63752457812610       0.64128864958059      -1.72953461990983
H         1.93799496532779       1.78206558447497      -1.35232925520166
H        -0.73234345465198       5.10046924801037      -1.00406484520458
H        -1.95097647412081       4.11087441270231      -0.19323259634510
H        -0.67546872275148       4.06803974766658       1.73760245659721
H         0.53818953965838       5.09295424524460       0.96423168059392
H        -2.11510823103815       0.70794865543455      -1.16208892556046
H        -0.94143485761941      -0.52096899002524      -0.66837762618012
H         2.18629819536787       0.58618570645614       0.92076499145414
H         1.09009529836139      -0.64685450253466       0.30750651308066
H        -2.18259861820177      -0.84969437526564       1.47065081043881
H        -3.37651724760348       0.35162518621539       0.95897627745000
H         3.74189663137008       0.17772961229958      -0.97562783061703
H         2.62824275840063      -1.02404008629850      -1.64763412049150
H        -3.93258505755671      -1.05539803281465      -1.03555154829564
H        -2.74020185939034      -2.25593640583099      -0.51707903614259
H         3.97441631655082      -1.18895279013554       1.09910059242707
H         2.85335239313116      -2.38750609740445       0.44262271887213
H        -5.19507240460907      -1.39493844626603       1.09917087331387
H        -4.00366541155348      -2.59990009334348       1.60854878369217
H         4.41399821603896      -2.80780645315459      -1.46503268128438
H         5.53674938411829      -1.60607533873661      -0.81115926522180
H        -5.78454671659394      -2.81231854377806      -0.87691462195160
H        -6.00946613363521      -3.69414262062794       0.64243597850068
H        -4.59102614868466      -4.01769317401717      -0.36715526816490
H         4.66978294284987      -4.17543975573269       0.61688157302511
H         6.22915312447457      -3.90606222018896      -0.17887216257180
H         5.79799624445792      -2.97409671761510       1.26436645818264
Cl        0.98334411009323       0.88242802792080       3.12433161308528
