43
C13H27NO2 optimized with ADF in AMS.
N        -0.57880374990715      -0.00265543530419      -0.08783176360365
C        -1.63716118284587       0.56483627674682      -1.01903575007313
C        -0.88033896592319      -1.47326448354873       0.14190845875899
C         0.75768091381419       0.14142048772120      -0.78113075185580
C        -0.60049943624737       0.71967573434002       1.26140077161129
C        -3.05490888667909       0.33678218272293      -0.52285423946425
C        -2.29463755600696      -1.71886401987784       0.64173428353814
C        -3.32994683714109      -1.15332389629347      -0.32660677192571
C         1.95883673903633      -0.34036670151389       0.01616403859887
C        -0.16052070365616       2.16396975608110       1.22185647475596
C         3.25837123702362      -0.06736328918497      -0.74565588636971
C         4.48468865663482      -0.55548877052047       0.02072560946241
H        -1.47355589734624       0.06550227516809      -1.98986148909508
H        -1.40921385013324       1.63290529924087      -1.13815635305443
H        -0.13787325903366      -1.83534205548222       0.86521803590102
H        -0.70618315163202      -1.96984935392170      -0.82905633383637
H         0.86193603558208       1.21028179312311      -1.02136106848209
H         0.67958089831041      -0.40953041147236      -1.73250072120530
H        -1.63095837858946       0.64480996550056       1.67459106114285
H         0.03192696210568       0.12966457967398       1.93897276650196
H        -3.73507113027409       0.77482702983253      -1.27243540227020
H        -3.22646856571332       0.85364648963467       0.43849058850850
H        -2.45024903404632      -1.24686249092316       1.62983976534942
H        -2.40937068018197      -2.80924505429319       0.76116425811591
H        -4.33950946960208      -1.29232864880726       0.08994970372579
H        -3.28567911347277      -1.68512816969827      -1.29748441782762
H         1.88305817503763      -1.42228122886366       0.21557925799583
H         2.00097135977524       0.16967928440352       0.99181861138826
H        -0.34830627251177       2.51853108185846       2.24917143445509
H         0.90461749648515       2.30882433235618       0.98110411976859
H        -0.76894365194655       2.78230286278120       0.54352866956102
H         3.34974587813793       1.01715920612799      -0.93655702860270
H         3.22077773484465      -0.55902054085919      -1.73479477245070
H         4.43376496062693      -1.64112674477325       0.20039764750828
H         4.56427912301027      -0.05677387429204       0.99955193631971
H         5.40747867320328      -0.34818793407892      -0.54133307283807
C        -3.70591141501974       1.05691588989766       4.92060785937157
C        -2.72397256351700       0.95991990535558       3.74337084956045
O        -3.22713329443471       0.52446566383217       2.64530536827331
O        -1.52763636468114       1.30476015026554       3.93828900004035
H        -4.54933821659534       1.70887298775235       4.64558562584511
H        -4.12946583847135       0.06303505698299       5.13238575819111
H        -3.21214607001856       1.44813295040925       5.82062307260504
