41
C11H22F3NO3S optimized with DFTB in AMS.
N        -0.12772873910795       0.15358347720567      -0.26525493145698
C        -1.51470322969026      -0.25200893684280      -0.65716619760763
C        -0.32589440754475       0.79472036385634       1.07758509902703
C        -2.17811110978194      -0.72586164993329       0.63409014451239
C        -1.39098786098429      -0.05002480489404       1.76812984935671
C         0.42219903653038       1.13173044081581      -1.26143710281785
C         0.75792235154156      -1.05018990281646      -0.10222809370385
C         1.82617478280461       1.63622757333847      -0.93199460137976
C         1.11630307814001      -1.78567325806450      -1.38963548031823
C         2.24701678063822       2.68093606763392      -1.96306222147078
C         1.92069292482160      -3.03292805052778      -1.01893097987910
H        -2.01915159014227       0.63213482760639      -1.05412398060061
H        -1.47171726175226      -1.01678959101777      -1.43179041233213
H         0.62298587520735       0.81601631737720       1.61584222020984
H        -0.67949414589513       1.81428359875179       0.90845853322847
H        -3.22988397301050      -0.43439887479656       0.64274463222109
H        -2.12795323902151      -1.81311674834537       0.71988506186140
H        -0.93057797739024      -0.79635154862817       2.41804089037182
H        -2.03346050155355       0.58340459191390       2.38175243146429
H         0.40711893866704       0.63903877994425      -2.23700648055177
H        -0.27800767501975       1.97196425818711      -1.29215338560592
H         1.66868622213709      -0.70612144391752       0.38450243300612
H         0.24874776747670      -1.72995086989362       0.58323491782341
H         1.84185131566850       2.07951578763577       0.06527135222761
H         2.54227958546676       0.81373116516159      -0.94110277198114
H         1.72457996781593      -1.14983885793487      -2.03805250042389
H         0.22042605600137      -2.07858041141113      -1.94672175281868
H         2.24058538211349       2.25625887195847      -2.96804162703280
H         1.57387454660225       3.53928066374549      -1.94196178909081
H         3.25558922952024       3.02355591010557      -1.73681317161475
H         2.77654603335575      -2.75678914284673      -0.40311059410838
H         1.30106906026478      -3.73277816555669      -0.45773418119739
H         2.27651120231788      -3.52535738693049      -1.92325440343497
S         3.53524536011944      -0.37443273130443       2.17550399053120
O         2.61825811248166       0.71317070216001       1.81626259348895
O         3.09161667473125      -1.67185208960574       1.68797754906795
O         4.01847478094235      -0.34173763893807       3.52816262403270
C         5.00138862191262      -0.00321722930277       1.10011854178622
F         5.53731939213052       1.17744779535294       1.38369890952348
F         4.59775375155436       0.03304274159597      -0.18090301612066
F         5.94421416093070      -0.92990278233784       1.20089680330743
