53
C15H29F6N2P optimized with DFTB in AMS.
N         2.69905626039310       0.42028820696571       0.89220362654130
N         2.74961683595476      -1.60524999444968       0.16724144890400
C         1.36756888403507       2.45041724005235       1.32539262636596
C         2.53523867005679       1.57056552399935       1.78095588461138
C         1.16670050232572      -3.50180842538768       0.27772566905408
C         2.62504812283652      -3.06063806657962       0.10915196506367
C         0.05114194901753       1.67100089640410       1.28931648814058
C         0.20817933279848      -2.77140143582384      -0.66550170121467
C        -1.12585598152763       2.54742399548054       0.85816473737471
C        -1.24510253657578      -3.13133448215488      -0.34072053968446
C         2.61526668384976      -0.85557523388878       1.26008869849795
C         2.88171264211044       0.48893368405243      -0.46356489054304
C         2.90812125931736      -0.78976600046633      -0.92074137114448
C        -2.41922863269310       1.72536543942460       0.85092813744883
C        -2.21826588261865      -2.31887247560763      -1.19950014994025
C        -3.62054083700519       2.57012573466447       0.43245106673639
C        -3.66924166091850      -2.62885865152118      -0.83626521292599
H         1.29156003602786       3.28005845823729       2.03438411971929
H         1.58759747897312       2.87181619962145       0.33896625305384
H         0.85966566853621      -3.32641376766241       1.30967134390903
H         1.13006780366943      -4.57928415368476       0.09306122285852
H         3.47024998892297       2.13931349403575       1.77410913198919
H         2.35479693840843       1.18055288184897       2.78469350963303
H         3.23990480504623      -3.48435272335621       0.90767500928638
H         3.02441619011771      -3.37988629648757      -0.85737471387491
H        -0.15083025201664       1.26144701885088       2.28167880310935
H         0.14816872003358       0.83090717829802       0.59523846875030
H         0.44017054005111      -3.02369296799843      -1.70684080436191
H         0.33663610960761      -1.69124905152915      -0.54409966893667
H        -1.22939126579898       3.39132639437435       1.54908206548798
H        -0.94014124917768       2.95535868785468      -0.14248695504192
H        -1.43418196094372      -2.92216245348083       0.71624871435191
H        -1.40696284186304      -4.20151530309161      -0.50730050081281
H         2.46737911881997      -1.21621961356544       2.26390049557613
H         2.97965676944880       1.42434396044301      -0.98526558664243
H         3.03028379448433      -1.18062239660024      -1.91557404337747
H        -2.30764672590785       0.88342620911501       0.15891368196731
H        -2.59056193948779       1.31346148269359       1.85025385520109
H        -2.04901376310844      -2.53978669322564      -2.25966023075229
H        -2.02851029975983      -1.25035888598400      -1.04695751850222
H        -3.76010985019961       3.40502161764987       1.12083808563745
H        -3.47765161812959       2.97019503789113      -0.57290615702660
H        -4.52473804947026       1.96106139651233       0.43823288425797
H        -4.34547609478999      -2.03851153745006      -1.45539031612087
H        -3.85716849324949      -2.38905853851147       0.21080660810341
H        -3.88612899209734      -3.68628332625047      -0.99451067363481
P         0.01572114128560      -1.51599593739029       3.53856961875019
F         0.11324453744061      -1.19905918937879       1.88548133078803
F        -1.01130652923195      -2.74310819980835       3.22320458780531
F         1.31640995195373      -2.55384943596028       3.35394590093422
F        -0.01696943726059      -1.81249388309039       5.13058053068635
F         1.11773618871057      -0.27448255053584       3.77536411232405
F        -1.21296948320183      -0.44729178054800       3.65142367451862
