40
C10H22F6NP optimized with ADF in AMS.
N        -0.22151573593121      -0.46308266770203      -0.05163471014893
C         0.41671590859895      -1.57059854941445      -0.88863945493019
C        -1.08910594478847      -1.20564165026121       0.98604455149572
C         0.82437673005454       0.38711916996976       0.65397072748657
C        -0.60711301913432      -2.68944074914374      -0.87417098644036
C        -1.06988343502499      -2.68408850777653       0.58624731061779
C        -1.09110911667344       0.38701940445519      -0.91901193975307
C         1.87867124495342       0.97744861032529      -0.26170147858181
C         2.93125710827171       1.71915588113277       0.57308554511472
C         4.20475096928643       2.02188307305070      -0.22340639488465
C         5.04256611971688       0.77389489385437      -0.49979071519671
H         1.32820755298792      -1.88187451277539      -0.36118943558060
H         0.66545533907104      -1.16588923023503      -1.87789929220445
H        -2.09023360494060      -0.75440298791738       0.94945684531319
H        -0.64050455070189      -1.03967410457955       1.97291049669619
H         1.30269581138810      -0.28919358963397       1.37646183970473
H         0.26264340888199       1.16636036557134       1.19654858548366
H        -0.13325550581717      -3.64168798391906      -1.15210445162228
H        -1.43852719240316      -2.49641432061890      -1.57369268618199
H        -2.05266166975615      -3.15465000588868       0.72997174887850
H        -0.32204741542229      -3.20882857734306       1.19809530752500
H        -0.46649753601666       0.89100112061250      -1.66601873609569
H        -1.83068924596171      -0.25202393697239      -1.41670790360341
H        -1.59931266223590       1.12953333132296      -0.28983181445635
H         2.37531549852998       0.15962390773370      -0.80390578864595
H         1.44608580105594       1.67313890289508      -1.00187291768605
H         3.20069566397759       1.09485122400488       1.44361073124696
H         2.49447207836308       2.65610463754767       0.96254435615009
H         4.81133455519706       2.74684898321315       0.34685523547272
H         3.93724994923615       2.52312410914717      -1.17352454238365
H         5.32851446836896       0.28202621542317       0.44257298202863
H         5.96007339923005       1.02647343532226      -1.05304005821191
H         4.49313248933009       0.02599517297681      -1.09169659543666
P         2.92863436595720      -2.91421921369006       1.91097213003267
F         3.77780457703645      -2.01976412737366       2.99198102806591
F         1.51345338378884      -2.12028470739187       2.40082812583762
F         3.14247929530117      -1.69826823953437       0.76424989126855
F         2.00951406916155      -3.74265443629128       0.78484753370792
F         4.28049704619702      -3.65768986600678       1.37929703827962
F         2.64337657416584      -4.08122027868939       3.01826524453794
