36
C10H17F3N2O3S optimized with ADF in AMS.
N        -0.07433799496157      -1.10650568800158       0.43472271050980
N        -2.11035486592202      -0.35246755060509       0.52100451677508
C         1.24070541158244      -1.59885651739124       0.88671715522589
C         2.38538451116634      -0.86973568372250       0.19643548344752
C         2.38690106386607       0.63250660610569       0.46517002306005
C        -1.09534797305550      -0.82487716778336       1.25383175531306
C        -0.44281725593813      -0.79077565541591      -0.85712985162791
C        -1.72035340847171      -0.31215100416979      -0.80123287263344
C        -3.35812721460361       0.19733543179603       1.07901657929222
C         3.55257473745840       1.33516895274628      -0.21909083304709
C        -3.48773342243026       1.67841147573470       0.76390034480637
H         1.27016276169960      -1.40060070806360       1.96863197388905
H         1.27483297054592      -2.68456519097196       0.70077103501939
H         2.37431293084875      -1.07747828972924      -0.89102886547702
H         3.31858341778370      -1.32551760188650       0.57528230116936
H         1.43170508709007       1.07955192975952       0.14188357874631
H         2.41585191205486       0.79934173728704       1.55513903923044
H        -1.07841589445563      -0.89617753008586       2.33664609851910
H         0.22943739163156      -0.91231858579995      -1.69602573435712
H        -4.19232519543338      -0.40211475726752       0.67983586526399
H        -3.28852969314624       0.05392481166725       2.16622545578959
H        -2.37091712543773       0.06012223080705      -1.58208938640123
H         3.51504656828978       1.20380366871817      -1.31346927341141
H         4.51978635150860       0.93940867659682       0.13212478485786
H         3.53129397964050       2.41432229070642      -0.00620261088252
H        -2.58863896419952       2.20271290540379       1.12023544499573
H        -4.36740346232910       2.07418968387804       1.29106510464613
H        -3.62159247749236       1.85991113425358      -0.31322352128321
S        -0.31134076025628       1.47639946214456       3.15016449867758
O        -0.32050127195379       2.01328059189328       1.77345050935660
O         0.73086726571284       0.45930056650287       3.41280300865809
O        -1.64676308240911       1.12468341598832       3.67713499349576
C         0.23306311639131       2.94639100274029       4.17761239786590
F        -0.61883675317190       3.99289963708036       4.01484242417543
F         1.47458274500869       3.35466626410235       3.79949974584015
F         0.27510955648842       2.63861286618169       5.49826653789448
