38
C12H22N2O2 optimized with ForceField in AMS.
N         0.36718691732963      -1.59816680443121       0.31336236038373
N        -1.75507058814510      -0.93748764767937       0.26459765353225
C         1.76409393224673      -1.72008592361875       0.72497472353294
C         2.65610468861315      -0.75813592508804      -0.07093659105767
C        -2.99679986965887      -0.25587885687391       0.62545828173759
C        -0.61816819945550      -0.97280780488354       0.98588823373535
C         2.28866206520528       0.71002847300901       0.19024491723288
C        -0.16676064195291      -1.98132180784790      -0.86421816871764
C        -1.48449541154393      -1.57432302414073      -0.89328594553683
C        -3.24003636201638       0.96351820465234      -0.27364234219766
C         3.23788275308511       1.65610960551800      -0.53754596055617
C        -2.12357034320885       2.00079955949598      -0.15249949855864
H         1.86325328090299      -1.50313309012651       1.81143287931690
H         2.10447321454708      -2.76522572837460       0.56079854080997
H         2.56513312792305      -0.98016329134567      -1.15674064697124
H         3.71275562339433      -0.93141706860964       0.22840341064331
H        -2.95810494081814       0.07321702188346       1.68740641981675
H        -3.84580795940670      -0.96565192248947       0.52516849967493
H        -0.49436498041464      -0.50449124424919       1.95487997492814
H         1.25482915360529       0.90951983789094      -0.16394692594057
H         2.33397494224709       0.92144843712634       1.28087113765971
H         0.36948085106992      -2.48984505628100      -1.65485103728384
H        -2.18182079193939      -1.70393999874594      -1.71066726170317
H        -3.32839579047499       0.64021478202387      -1.33322966778914
H        -4.20152873600972       1.43685399935064       0.02016559537651
H         3.18965332972715       1.48294621156517      -1.63356847279619
H         4.27937247637668       1.50035096816176      -0.18746153086916
H         2.94587771275908       2.70744745029756      -0.33056227704511
H        -1.17207662034568       1.59521661434493      -0.55634242437978
H        -1.97720434123049       2.29292426845481       0.90916357688631
H        -2.39156968061736       2.90601252467721      -0.73677482780582
C         7.29369844135502       2.67107448812798       0.81289480092934
C         7.67591058853955       2.44789493880535      -0.61626453597919
O         7.82337829526718       1.31205178683751      -1.03715799873787
O         7.84193944700350       3.39774359595927      -1.36458332944100
H         6.30241847325447       2.21353455553447       1.01003970431330
H         8.04891451055763       2.20322294100606       1.47871658048746
H         7.23819454512871       3.75739394506278       1.03918492866931
