32
C10H16BF4N optimized with ADF in AMS.
N         2.17607959502954       0.08442855961732      -0.24897355470292
C        -0.29805226402216       0.07150703562722       0.13181989832163
C        -1.62566283280812       0.35216878879959      -0.57180677204397
C         0.83455242314449      -0.00506987061305      -0.88409862378824
C        -2.79558992084123       0.45413727956739       0.40527341376364
C        -4.10514064551247       0.81326346312195      -0.29206720765623
C         3.06753492465620      -0.92451905987904      -0.36679616818168
C         2.51175616327615       1.24653658442518       0.34992858013513
C         4.34641192006103      -0.79312643165441       0.13465523684586
C         3.78470068320131       1.42505863954333       0.86485042605628
C         4.71499479674313       0.40093656410532       0.75753148228439
H        -0.34699203180733      -0.85969851592343       0.72502756204063
H        -0.10029273811407       0.90149197955315       0.83041866096439
H        -1.83604084967458      -0.43588038352525      -1.31895357399242
H        -1.52081450786051       1.30399437939351      -1.12198266558993
H         0.81234760157229      -0.94437755898313      -1.45460145242236
H         0.79293704810935       0.85299659313028      -1.57368494179266
H        -2.55986145345431       1.22220528597093       1.16382233998987
H        -2.90889305815814      -0.50193359370990       0.94866678234234
H        -4.02149197806636       1.78674218197800      -0.80035786666633
H        -4.93629746197958       0.87629961878028       0.42651103522159
H        -4.36967490570550       0.05941478241008      -1.05061146420038
H         2.71955330020739      -1.81637577808437      -0.88304836653595
H         1.74900699157914       2.02334321184314       0.37453403141751
H         5.05034212334707      -1.61688021918345       0.01918668237649
H         4.02595732392384       2.39361377350573       1.30155733014444
H         5.72840243594970       0.52985198570839       1.14168017760814
B         1.73107835961949       3.57270563379392      -1.47096933442774
F         1.53073483747373       4.55042748507008      -2.43695271351823
F         2.49417901373819       2.46724698372585      -1.99904371095435
F         0.46842144784192       3.02189227172088      -1.01646664017384
F         2.41256881153037       4.07474695716451      -0.32090683106507
