29
C7H13F6N2P optimized with DFTB in AMS.
N         0.72673311180231      -0.73504593594984      -0.38722923724544
N        -0.95274861460008       0.48359575946246      -0.95126086428508
C         2.10907311271405      -1.18963112378389      -0.25953916768720
C         2.72626057174952      -0.73753254258703       1.06542322891694
C         0.37339556533862       0.45272156779419      -0.86638931456306
C        -0.39780289115265      -1.47828638851581      -0.15291708613007
C        -1.46075369653353      -0.70931736404910      -0.50973146763491
C         2.85953102515266       0.78062057263898       1.16055783517758
C        -1.71063039340951       1.59056713514661      -1.51270742330298
H         2.66201462949733      -0.77711653633701      -1.10789927740894
H         2.10338053553784      -2.27985759639947      -0.32546707268046
H         2.12319269095202      -1.11480333885391       1.89752544058206
H         3.71748556833407      -1.19485362975842       1.13078581879252
H         1.04328990815604       1.23826283351475      -1.16696568341986
H        -0.35254839459113      -2.48224846198803       0.23133986954250
H        -2.51700153000837      -0.91329408048639      -0.49350221008311
H         1.87685293612862       1.25146941182637       1.21091553458401
H         3.39038764197642       1.17125041354920       0.29249941515362
H         3.41382671655164       1.04535282772862       2.06057190817687
H        -1.07187807837308       2.11508290718074      -2.22308958470780
H        -2.58935554369703       1.19644525386156      -2.02031296217997
H        -2.01774188786910       2.26770119256375      -0.71432743782965
P         2.22356359948195       1.12984792015096      -3.64090643484586
F         1.53212035619272       0.96723243755268      -5.10217877925356
F         1.40299398469113      -0.23398138612380      -3.09863340927045
F         3.48776868205002       0.19569028716197      -4.06404565493238
F         2.86330223981371       1.27537533381435      -2.08445433963778
F         2.99648062322929       2.48609818258046      -4.08351031273072
F         0.90856737948450       2.04862004040504      -3.12189263909683
