36
C8H20F6NP optimized with ForceField in AMS.
N         0.00252863631173      -0.00263106835820       0.00277648874858
C        -0.84756882187556      -0.26279788859230       1.21734067029312
C        -0.84406238058298       0.25987596592445      -1.21333103842957
C         0.84954257167543      -1.21914414182324      -0.25795923841391
C         0.85138317240152       1.21265578644043       0.26449598554930
C        -1.90719437032726      -1.37353302808656       1.07209763318115
C        -1.89746580608684       1.37560515780785      -1.06923230141120
C         1.90856067232077      -1.07586394631596      -1.36938604512720
C         1.90976370163351       1.06844351334352       1.37565599183063
H        -0.21205638166148      -0.56186923375342       2.07860342824800
H        -1.36832917501067       0.66492701934150       1.54266554417297
H        -0.20617225892932       0.55612886119118      -2.07368188290476
H        -1.36804143271214      -0.66558525065171      -1.54027231784615
H         1.36942056120744      -1.54639773791400       0.66953392236192
H         0.21212374749804      -2.07889592616670      -0.55720313201816
H         1.37104965403889       1.54070153104836      -0.66290347028130
H         0.21582754274322       2.07281974315363       0.56583352066687
H        -2.47184659654635      -1.45203220590139       2.02511182497486
H        -2.64425130848012      -1.15122471679615       0.27636251031322
H        -1.44231428650812      -2.36220513916132       0.88961729844718
H        -2.44186283171441       1.47101728623031      -2.03016342798751
H        -2.64855598461639       1.14650930468815      -0.28851224552970
H        -1.43149263754031       2.35977509083271      -0.86845935242645
H         2.47268922601653      -2.02919223296109      -1.44730208338946
H         1.44307210534072      -0.89428956473598      -2.35796042461633
H         2.64573156614337      -0.27995758297291      -1.14844959990693
H         2.47308256781458       2.02231400662683       1.45403217386318
H         1.44340861756276       0.88621950991553       2.36368042009642
H         2.64733012633840       0.27322247366124       1.15401011006005
P        -5.69692716665420      -0.07164277221061      -3.74015180206594
F        -4.66996828945845      -1.22625782726281      -2.98849408879877
F        -6.45528272867696       0.20568514182191      -2.22375953815552
F        -4.57568806361124       1.18424574481350      -3.40721726997743
F        -6.70552344696943       1.10766968458625      -4.47677360827497
F        -4.90195796196728      -0.36014779969937      -5.23549270761674
F        -6.86312504911737      -1.27316115156363      -4.12460034412947
