59
C17H34F3NO3S optimized with ADF in AMS.
N         0.30444095226555       1.90297433322894      -0.28799378771122
C        -0.31170665993610       2.71209615101609      -1.45285855911891
C         0.88209791871772       2.94222311043972       0.66307558121494
C        -0.78630979019332       1.12707815001474       0.42928622738922
C         1.38035353686352       0.98080828886805      -0.82443895943181
C        -0.01452843046218       4.17400929836832      -1.13949350155334
C         0.08654178502765       4.20482850386827       0.38648483004380
C        -1.40148808857277       0.01986291197291      -0.40416443237898
C         2.09358405117256       0.16228855178175       0.23373391698532
C        -2.69656241616241      -0.49341921544226       0.22338498693846
C         3.10886007037975      -0.76184043574988      -0.44535964436723
C        -3.31557303296780      -1.60967921197741      -0.61532193371318
C         3.85112936312292      -1.65239601493256       0.54704049572500
C        -4.62338466058239      -2.14588584677453      -0.03991728153805
C         4.84712714785653      -2.59122131969236      -0.13102560625223
C        -5.22602850383367      -3.25445748965279      -0.89993096273910
C         5.59090274909175      -3.48340891997933       0.85958653761899
H         0.11255979112324       2.33786890988186      -2.40037924519580
H        -1.38943302638904       2.50801477410488      -1.44486425956300
H         0.83042986720071       2.56106478229262       1.69061364662485
H         1.93583479047710       3.08103580927310       0.37905361616254
H        -0.34156942597732       0.72971288828157       1.35340345330553
H        -1.54219449109187       1.87696074896340       0.71163967402506
H         0.89828547142800       0.32991960753402      -1.57150884919020
H         2.07907450759110       1.62959398807391      -1.37546600432094
H         0.94399765785172       4.48007059677151      -1.58976943094930
H        -0.79780384442736       4.83249297517267      -1.54161631073534
H        -0.91223511635250       4.14784401749495       0.85115550973431
H         0.59247001656573       5.09806979180908       0.78089228319194
H        -1.60639040623275       0.36577165998012      -1.42783612164440
H        -0.69063980114248      -0.81326747290634      -0.51918506314835
H         2.60933142412684       0.80281467715744       0.97157103434076
H         1.37349324978005      -0.46403825487811       0.78845907576984
H        -2.50719242880590      -0.86044213549670       1.25024738119284
H        -3.41990834904275       0.33921139784182       0.31475021783295
H         3.83685252543649      -0.15408782965893      -1.01358205879205
H         2.58086560208374      -1.38403322132237      -1.18977122201465
H        -3.48708009839403      -1.23442591687989      -1.64095790798955
H        -2.58781136860329      -2.43611482368266      -0.71281769016801
H         4.38442631002517      -1.02260119414920       1.28504783423391
H         3.11809920929083      -2.25177365736605       1.12045900140999
H        -5.34602045842871      -1.31425170582413       0.05560598475296
H        -4.44470393295703      -2.52292800540248       0.98415115530269
H         4.30775588799581      -3.21553456475003      -0.86591386811057
H         5.57214841719046      -1.98996401823086      -0.70930978325792
H        -5.43216906944722      -2.89042724217078      -1.91877708968624
H        -6.17033777618371      -3.63005555710405      -0.47558807151288
H        -4.53093378198980      -4.10479995660993      -0.98619322540179
H         4.88729764241550      -4.11486342162121       1.42604455830741
H         6.30200969067160      -4.14924164123930       0.34636836357329
H         6.15867311510438      -2.87981619804863       1.58611594504756
S         0.32716635444795       0.07360479951488      -4.26067647371160
O         0.84075859587217      -0.60735390583626      -5.44547552716855
O         0.89953671586674       1.41107164085827      -3.97231399644095
O         0.13935563069759      -0.76514481720608      -3.05194207976881
C        -1.45219396303347       0.48136848889794      -4.72849825271180
F        -2.17719689632206      -0.64165364199238      -4.96716049033771
F        -1.51636005094896       1.26771401405218      -5.83191284955209
F        -2.09523036405996       1.16319992636250      -3.71302916924763
