64
C18H26F18NP optimized with ADF in AMS.
N        -0.97738458310620       1.00085106511723       0.35375426767661
C        -1.71509933593818       0.61717459362676      -0.92068111545245
C        -1.97915143421913       1.05488071726701       1.49954522917855
C         0.11251555954129       0.00221497123126       0.68309379797538
C        -0.40321096963178       2.39578308317793       0.13362108531568
C        -2.49588986797284      -0.68012765679984      -0.79591400517800
C        -2.77342081630735      -0.23193493189836       1.65658775884013
C        -3.49113900515105      -0.60843311802973       0.36170392237714
C         1.27550649720914      -0.04467039800462      -0.29367435397552
C         0.42577103842077       2.95497497097844       1.27655268287694
C         2.27505005073433      -1.12897067416791       0.11813066304604
C         1.04081305179864       4.28574344034690       0.83731629404861
C         3.46764233883665      -1.19792296431402      -0.83189630864583
H        -0.96561489861316       0.58197292395690      -1.72294996805762
H        -2.39727695678929       1.45209947034383      -1.12626110961231
H        -2.64281524527638       1.90252487811477       1.27854946840035
H        -1.40495267753918       1.29299912961782       2.40486535627931
H        -0.36850038591407      -0.98185110408057       0.74433561720539
H         0.46531147710726       0.25795452366807       1.69265287546827
H        -1.26292660523858       3.05144279501363      -0.05828489455893
H         0.18897648406407       2.33570606705428      -0.79187499930455
H        -1.81970046739172      -1.54578893075102      -0.68214726277647
H        -3.02406050608130      -0.82610871564118      -1.75319421243833
H        -3.50197246096728      -0.05243863928326       2.46452457365376
H        -2.12939661997871      -1.05939762295830       2.00138309925402
H        -4.25205785470169       0.15662293468447       0.13224996052737
H        -4.01805518446134      -1.56866605568795       0.47809088785005
H         1.79693960506496       0.92592767615581      -0.32456496789882
H         0.92027135921839      -0.25874266194217      -1.31572116664289
H        -0.21511516265383       3.12862724372866       2.15455351011215
H         1.22920767825734       2.25930333771282       1.57222034179258
H         1.76265061276941      -2.10767932619774       0.14707244688467
H         2.62813557164263      -0.92810573981324       1.14576592381547
H         1.59697588553759       4.74503329413657       1.66625128229390
H         1.73680882658800       4.13934587838340      -0.00435643968602
H         0.25679141011334       4.98889098715646       0.52452547622312
H         4.01420295021728      -0.24181845784874      -0.84952012098073
H         3.14061501548076      -1.41791784331661      -1.86059295779678
H         4.17474426234068      -1.98371249739600      -0.52812556804143
P        -3.66545272741708       5.27353038588712       0.44926929866157
F        -3.20594037296851       3.96090694532710       1.42332683385281
F        -5.25003529499628       5.15937963915703       0.91085707273102
F        -2.06031106214427       5.37080962830118      -0.04284151341187
C        -3.33757834337623       6.32652796627982       2.08604453574207
C        -4.07294280262775       3.83870463522321      -0.95701578498450
C        -4.05248994093598       6.72800711320406      -0.88382828238281
C        -1.88266075118499       6.51716784196352       2.61225564349767
C        -5.27695589566075       3.83441708525207      -1.96426186007501
C        -3.66854197412966       8.24251188413091      -0.77607667369365
F        -3.99876429297048       5.71631416217448       3.13193022284703
F        -3.86454195134908       7.59293460706953       1.98709962856841
F        -4.32108974286681       2.65372293970778      -0.25542982270870
F        -2.95228843174120       3.57812013780967      -1.73721077902740
F        -5.39908385288361       6.73286125295112      -1.17074785663936
F        -3.38409216508562       6.31675264053011      -2.02520451419586
F        -1.91798613283131       7.19965859679458       3.79045230138794
F        -1.10315007458636       7.21644594267741       1.75901420800412
F        -1.27621391168987       5.32348731431569       2.85884546318047
F        -5.33579394089209       2.58596814999089      -2.54112388278757
F        -6.44679635254729       4.04208796024930      -1.32703333014503
F        -5.15667894697634       4.71284134001356      -2.97529544783857
F        -4.55372868019679       8.94762545853112      -0.03844606285542
F        -3.67942694422013       8.78734861938335      -2.02721152808052
F        -2.42571436823097       8.40880148693363      -0.27000881849564
