41
C11H21F6N2P optimized with DFTB in AMS.
N        -0.19131094086348      -1.65147959254555      -0.01485862696182
N         1.82447769192737      -1.12634261061880       0.53373792612390
C        -1.64246036720105      -1.77788832281402       0.01360040822929
C         2.96560917261387      -0.59894061341105       1.27952245171606
C        -2.29192961068095      -0.62891479244031      -0.76439364120743
C         3.29608575341207       0.81763816807674       0.80945357618178
C         0.56584467188132      -1.13878404899512       0.96056741140014
C         0.60815081296113      -1.95280070300068      -1.08680009970615
C         1.87860173681478      -1.62136256502748      -0.73771079449435
C        -2.01677225749737       0.73422964387194      -0.12216470323370
C         2.17962047653345       1.81571728928509       1.12267173349441
C        -2.68087287681689       1.86105581448616      -0.91035047567383
C         2.54713256517297       3.21890812926424       0.64332459044054
H        -1.90624863111150      -2.73848832897939      -0.43669529800270
H        -1.96321668172095      -1.77196744248469       1.05876579096977
H         2.70861265473783      -0.61784085235271       2.34182646816646
H         3.81256304365673      -1.26011945311734       1.08889447605765
H        -3.36953680773755      -0.81355407646251      -0.79365555216018
H        -1.91910940194128      -0.63728992077146      -1.79281959247438
H         3.49224677530106       0.79846470651423      -0.26492604863097
H         4.22003576518233       1.11700941873555       1.31026274551923
H         0.21796021271893      -0.82087800062029       1.92797591468670
H         0.21168435198885      -2.38095783211271      -1.99043680459366
H         2.80860726613754      -1.70436860100423      -1.27471623305249
H        -2.39199823594061       0.73364249787189       0.90688340636066
H        -0.93594887928338       0.90688380659208      -0.08435507495960
H         1.25281767380539       1.49676494987422       0.62969735449405
H         1.99157751016497       1.83376128321125       2.20249889093544
H        -3.76143182860170       1.71870575111228      -0.94502924334470
H        -2.29966421733205       1.88771311973492      -1.93159303249023
H        -2.47035970077785       2.81861445297744      -0.43488428096583
H         2.72506574858042       3.21781900211893      -0.43242702213185
H         3.45100432108688       3.56676194787651       1.14401762947643
H         1.73661933907733       3.91428377129720       0.86285105551780
P         5.72805031329113      -1.68835763914138      -1.08899890897336
F         6.86556183153157      -2.70746917884523      -0.53234645661161
F         5.81106092131471      -0.79701951857382       0.31243999545362
F         6.83821334542008      -0.72885227554145      -1.78803182905073
F         4.50371734691047      -0.65003450290906      -1.61316544101013
F         5.54261316938320      -2.56024950847224      -2.45916134507638
F         4.53072010000023      -2.62836608485915      -0.35790274711782
