53
C15H30F3NO3S optimized with ADF in AMS.
N         0.61533205286353       0.89386547312534      -0.76119809844070
C         1.40044793845500       2.00548323776958      -0.07174607232206
C         0.13666775263330       1.53454783167477      -2.06857685762719
C         1.51421746987065      -0.28457675684491      -1.07030020227450
C        -0.56536651076917       0.51153988374685       0.10753405921293
C         0.63761906567872       3.27291721794729      -0.40979954212737
C         0.21950013454907       3.05686851731019      -1.87471095144216
C         2.13326334241945      -0.94071909737210       0.14715425037280
C        -1.38227340507635      -0.67449199779584      -0.37926678497935
C         3.13038927638572      -2.00901781454724      -0.30619229717123
C        -2.66155885613219      -0.82550982057077       0.44947516506174
C         3.84008260394877      -2.68377732200709       0.86461664032313
C        -3.50529215114051      -2.02592127805533       0.02049742585141
C         4.86904090222335      -3.71113477792930       0.40034411723280
C        -4.78576942030659      -2.17371927585497       0.83923491436202
H         2.40432593139905       1.99535416982901      -0.52532890356280
H         1.47170642880135       1.77601182267777       0.99886455423633
H        -0.87341365922811       1.15978299940264      -2.27398521870774
H         0.83255069369580       1.20578126978568      -2.85094925953036
H         2.30684285538062       0.13076141354338      -1.70645074306956
H         0.91738460481373      -0.99504017822102      -1.66221326027198
H        -1.19585699352430       1.41099986620620       0.17327256280572
H        -0.16161688464874       0.30855574305188       1.11043771253679
H         1.28775657589529       4.15188178255424      -0.29280398827562
H        -0.23331304661062       3.41240693807725       0.25168357543586
H        -0.72892342542870       3.55567800295970      -2.11818699455115
H         1.00904834541496       3.43712331333327      -2.53834762125687
H         1.37030090566562      -1.39454253466103       0.80481837915740
H         2.68686467753817      -0.18575898060424       0.72947196490117
H        -0.79048679403760      -1.60133517143378      -0.30383373137132
H        -1.65580522981809      -0.55374053018063      -1.44125667645714
H         3.87808022397152      -1.52618876427217      -0.95704505527435
H         2.61298738641121      -2.77185453156314      -0.91733333850423
H        -3.26800011468505       0.09487241759813       0.36138622631436
H        -2.40121449567833      -0.92677760545758       1.51926914916928
H         3.09570671286796      -3.16745816636160       1.52368276640959
H         4.34115585005600      -1.90682177133577       1.46912421162928
H        -2.89938697447210      -2.94510913257738       0.11023245310569
H        -3.75963193860325      -1.92339971857150      -1.04967302966511
H         5.37951919065898      -4.18354834719078       1.25297357980766
H         4.39198932109927      -4.50725388623522      -0.19416181723813
H         5.63312811662833      -3.23307693048695      -0.23274796435605
H        -5.37494050569113      -3.03969630819371       0.50332804707714
H        -4.55932648773946      -2.31529533693827       1.90825406174208
H        -5.42135951594300      -1.27830516411008       0.74624273454765
S         4.36860359333381       1.83717759449208      -2.49431001447307
O         5.40535114473232       2.83276937104981      -2.75148839623340
O         3.00602991371202       2.15366489967341      -2.99327683915292
O         4.35258286955243       1.22711611949202      -1.14146958856236
C         4.85717410230637       0.38462678103671      -3.58748349922379
F         6.05516487180954      -0.13922270396810      -3.21901488780443
F         4.93823487200839       0.74763575430043      -4.89198142120661
F         3.92976141875302      -0.62937016709711      -3.50516777365928
