46
C14H29NO2 optimized with DFTB in AMS.
N        -0.77724935919104       0.64299759460690      -0.33980695434396
C        -1.31842022020865      -0.51443426537535      -1.12281598353853
C        -1.90517844796217       1.33121628512007       0.37716764642893
C         0.24954066205800       0.21378571655318       0.67024858310278
C        -0.19139454143063       1.60383239562068      -1.34515108821511
C        -2.10168767738535      -1.50121739173704      -0.26491374550048
C        -2.72839391030750       0.38785466911691       1.24231901677566
C        -3.26075499705322      -0.79607288340383       0.43761969604381
C         1.49525868441953      -0.45320954992324       0.09696152614597
C         0.50972610926312       2.82613317983917      -0.75625552868858
C         2.49977395223308      -0.64546773263978       1.24199287719872
C         0.96029179107234       3.73973755991836      -1.89371183507435
C         3.80320063633285      -1.25773571409984       0.73696456981298
H        -0.47746208542488      -1.01074026633341      -1.61113022123625
H        -1.97342567147375      -0.09844168846091      -1.89421167832378
H        -2.53903997191618       1.79126908734411      -0.38597474170589
H        -1.45329516755512       2.10876393992812       1.01079807280077
H        -0.23934364898425      -0.46713312246983       1.36761250177809
H         0.55041183972113       1.11627215913971       1.21984022341467
H        -1.02199449001607       1.92251695545210      -1.98301256043216
H         0.50560883546187       1.03206432739902      -1.96394477498889
H        -1.44668780895546      -1.97705161443298       0.46924696290812
H        -2.48313862540797      -2.28347935159327      -0.92689736894799
H        -3.56271234426080       0.96710149032161       1.64608831853189
H        -2.13711507427085       0.03071845834496       2.08907917937892
H        -3.98024892877997      -0.44362001915857      -0.30911804642385
H        -3.77338797385172      -1.49806906481548       1.09957630468712
H         1.95493402830587       0.17540171492286      -0.66981989150951
H         1.25626437567626      -1.42199986630375      -0.35543974534073
H        -0.16361772839596       3.37155180351448      -0.09279732164341
H         1.37819638808962       2.52620333256623      -0.16606728778368
H         2.05960252271423      -1.29521204737696       2.00576441181551
H         2.69909592939206       0.32821712364536       1.70031393249034
H         1.46989190243349       4.60760997274823      -1.47732328968708
H         1.64978436456762       3.21847459212705      -2.56010435048303
H         0.10560823574439       4.08545532174549      -2.47803859831201
H         4.26537094996091      -0.61066367381728      -0.00991381933213
H         3.62320296506043      -2.23548456120255       0.28593622872502
H         4.49927135908812      -1.38085882807231       1.56660565674577
C         1.19493971984200       3.93330557363617       3.80799940386173
C         0.81844504913241       3.07180968944794       2.58161371801704
O         1.72504925420390       2.38111613382519       2.06940930280485
O        -0.37408928652114       3.13166749395414       2.20642201467970
H         0.81386766201984       4.94410993498011       3.67256019296076
H         0.72602521480983       3.50147490513884       4.69175138570340
H         2.27470756554976       3.95407365315941       3.94161847519884
