40
C10H15F6N3O4S2 optimized with ADF in AMS.
H         0.72398234592717      -1.95735817720374      -5.03960004690311
H        -0.66168762179345      -1.18702373098661      -4.20430098195497
H        -0.51738734761741      -2.97170058982002      -4.18133257830863
C         0.04024155194216      -2.02767175015815      -4.18357531102586
H         3.11339278060899      -2.82075113717835      -0.78794472289986
H         1.77561609849620      -3.88407674467282      -2.99081290361088
H         0.51813403979487       0.10958245229175      -2.38942931867661
N         0.83632369689922      -1.94375473389237      -2.96459484397145
C         0.98832930286036      -0.84820083330328      -2.21259089271990
N         1.88850632870931      -1.11318311805353      -1.25767286775831
C         2.34496728208907      -2.40147389291009      -1.42462878371019
C         1.68833417037677      -2.92316675946252      -2.50068483442269
C         2.37018632941209      -0.13397676440878      -0.27344044885244
H         3.24055674147670      -0.58907040153208       0.21693650308194
H         2.73056890210687       0.72992366244466      -0.84920941719271
C         1.30326003728203       0.25035360999564       0.74243507610411
H         0.95103582583761      -0.65287957060001       1.27213912688521
H         0.42897261570775       0.68228522355704       0.22256486641433
C         1.85023717058089       1.26843818699571       1.74217809333599
H         2.73436799129464       0.84096128638363       2.24838644827592
H         2.20742551510322       2.15740137485379       1.19275066700483
C         0.81206347111673       1.68435290360879       2.77962479178562
H         0.46434792392726       0.81674389104440       3.36265575870272
H        -0.06710598993940       2.14206925260769       2.29808422242557
H         1.23094137109282       2.41876719576168       3.48308335454721
N         4.97831578544381      -0.51190948931513      -4.08151904261341
S         6.18363445559172       0.29684991308556      -3.36442453603168
S         3.54854743355554       0.13236913312106      -4.35368743768684
C         5.93450161871200      -0.02941980235031      -1.50191744595378
C         3.74914549067095       1.44622324482344      -5.72709576088620
O         7.41181828133193      -0.42607805974447      -3.64376985106551
O         6.11373340451615       1.74752528238715      -3.47900881877238
O         2.94655126977207       0.89451527498287      -3.24602901443147
O         2.72652771073014      -0.90063012035047      -4.98999322186390
F         7.13407792425996      -0.09395976141229      -0.88531291040755
F         5.28407706084461      -1.21253047443637      -1.27371573257405
F         5.21297202310127       0.95717145268772      -0.91139315888877
F         3.94605657516575       2.67190319979612      -5.20908885410861
F         2.60289284090210       1.47521072171307      -6.45997519658475
F         4.77501211000951       1.13840886124963      -6.54700818018692
