55
C17H18F18NP optimized with DFTB in AMS.
N         1.77061227644347       1.93031984724849      -1.48280457033477
C        -1.60729982812273       0.27184598765791      -0.91770273824823
C        -0.15179802519672       0.65903405334722      -0.63867178777173
C        -2.15292582655890      -0.64698328594571       0.17940607591363
C         0.37170482784739       1.57245597524007      -1.74815795661636
C        -3.60775229632629      -1.03715838143405      -0.10082061139226
C        -4.15693821459055      -1.95425510918820       0.99028904649170
C         2.73214584107011       1.02571838160673      -1.72864085464463
C         2.07095940309636       3.15250924432855      -1.02051836454052
C         4.05544746526557       1.32790500835602      -1.48843775501196
C         3.38067878550345       3.50206810928796      -0.76271108849329
C         4.39326459976476       2.58213984381583      -0.99702013945980
H        -1.66669693724061      -0.23535174344031      -1.88598344711923
H        -2.21835601573468       1.17839298055466      -0.97641044553158
H        -0.07838303376828       1.17847115721460       0.32215031230350
H         0.46907528614968      -0.24055714992152      -0.58436977191096
H        -1.53574418359384      -1.55009295610193       0.23743024684717
H        -2.08961336702785      -0.13644244153428       1.14657587788328
H        -0.21091421870527       2.49379303048397      -1.79869170018219
H         0.32942258691925       1.07590618424445      -2.71972487575906
H        -4.22141964573179      -0.13212241940194      -0.15995228236484
H        -3.66705244597847      -1.54558165634301      -1.06879374792972
H        -4.12447393114202      -1.45679435064118       1.96057683020772
H        -5.19121040851998      -2.21781511666790       0.76936419071868
H        -3.56962862723329      -2.87149372673878       1.05050378917470
H         2.41948301585488       0.07619786811531      -2.14527818688715
H         1.24865563154889       3.84450649509066      -0.88783660622987
H         4.81654913556906       0.59504349652320      -1.72205570268569
H         3.60163551134369       4.50130731034007      -0.41055310611733
H         5.43000320891337       2.84668644264582      -0.83149114576471
P         2.98672331981867       3.55693654827424      -5.20975509072729
F         3.19631258010729       5.18562781474323      -4.94938676224800
F         2.69110386250965       3.75408348008393      -6.83303538651082
F         3.28275580558903       3.26798518600493      -3.54474405909804
C         4.91422084914850       3.55714450845839      -5.55619661575022
C         1.05033119135374       3.91380212229370      -4.82093603589081
C         2.66153641016678       1.55298552068084      -5.34599370277547
C         5.87327956809234       3.82988534523134      -4.36365452378613
C        -0.13997094140335       3.19706155310819      -5.53188510399126
C         3.68707527951694       0.39144251259241      -5.22330379830156
F         5.17464178838904       4.50264184197880      -6.47038955369805
F         5.29692321545426       2.37959722706640      -6.08926288173634
F         0.83502910722956       5.21350052613764      -5.07069311693390
F         0.80975781125609       3.74041724838598      -3.49019789255320
F         1.92855125499932       1.28303030395063      -6.43603382589518
F         1.84170416164983       1.33001824103637      -4.26721369305658
F         7.12217281943937       3.99475070142091      -4.79488487523474
F         5.88247934482712       2.80271885612657      -3.50163635966761
F         5.53073691972327       4.91750448537238      -3.67949945334371
F        -1.24346561802561       3.93459196072870      -5.36823749769350
F         0.05313179643370       3.04060956394838      -6.83140948784150
F        -0.40092286693840       2.00201493486923      -4.99078443209327
F         4.30069175274546       0.11095350594148      -6.35775094835265
F         3.04921254988664      -0.71937824904941      -4.82099277894630
F         4.60312115871212       0.65480741367202      -4.28192728291833
