47
C15H25F3N2O2 optimized with DFTB in AMS.
N         1.32727985687395       2.49174210713443       0.48154681947731
N        -0.80077270922730       2.69640818358520       0.25011407682620
C         2.72586712823005       2.24105305525101       0.15152588124793
C        -2.11177586335199       2.73708262168927      -0.39534189301282
C         3.06808593285469       0.77093213382801       0.41329621422798
C        -2.43456658102711       1.37598271306084      -1.01622302392020
C         2.22464596357770      -0.17654380309154      -0.44452908184085
C        -2.37013472367471       0.23261071083458      -0.00155975179977
C         0.34466149529332       2.56738281296489      -0.41157737183286
C         0.79667146051105       2.55950922537950       1.74279559744531
C        -0.54938069711418       2.68854650106379       1.59449993498402
C         2.56805543364321      -1.64180034172879      -0.16242359286782
C        -2.67062361083953      -1.11195200855883      -0.67159886651048
C         1.70703101459912      -2.57686141064906      -1.00951480955642
C        -2.56654040349769      -2.26490039653581       0.32484520333182
H         3.34673569505176       2.89583321592675       0.76852737044197
H         2.86481840028778       2.49402771372069      -0.90236326834848
H        -2.07059449549056       3.49247783814005      -1.18472116662817
H        -2.84776041320452       3.02286607715662       0.35996042424504
H         2.91744581744989       0.54965947490108       1.47509086269621
H         4.12884650104842       0.63240594517521       0.18617038734248
H        -3.43790784191084       1.43992622179156      -1.44565178757062
H        -1.73135766908550       1.19349819402688      -1.83321278600920
H         2.39482737716858       0.04312978992776      -1.50199552735936
H         1.16237658749251      -0.00818851981014      -0.23612152698171
H        -3.08835388754663       0.41247562757223       0.80669325303292
H        -1.36960125122506       0.19527441050686       0.44457516887139
H         0.42604490116497       2.56274232561332      -1.49122606922501
H         1.40866300858346       2.51803380330384       2.62670293155234
H        -1.33287536452692       2.77983456415185       2.32621662809604
H         2.40764137574552      -1.85772304967772       0.89985765578197
H         3.62591655273317      -1.81762379261225      -0.38395302510204
H        -3.67761517814746      -1.08852866426451      -1.10037385126760
H        -1.96133231013294      -1.27310057559932      -1.48983680293906
H         1.86473656077470      -2.38314981350710      -2.07083796916745
H         0.64969687269940      -2.43005093869191      -0.78404455619377
H         1.96594821101662      -3.61509410220559      -0.80167495198175
H        -3.27914555313931      -2.13295889644590       1.14039683020217
H        -1.56157842540106      -2.31519326543830       0.74719135306884
H        -2.78052333853122      -3.20993981292495      -0.17431778325828
C        -0.10342401069409       2.98465130548019      -4.04775229741323
O        -0.75350520815774       2.96841511687275      -2.99585070623104
O        -0.31903019076230       3.34140335535973      -5.17817422600855
C         1.40755134113203       2.36336434783519      -3.77372730800272
F         1.31748722470901       1.15391179170155      -3.14921527679041
F         2.09361795499867       3.14529769341781      -2.88126072860415
F         2.20791665924905       2.19519033286825      -4.82427432044809
