61
C17H24F18NP optimized with ADF in AMS.
N         1.61046983934386      -0.22525403889424      -0.84877734701134
C         0.17988190906258       0.26732644150183      -0.74899636084842
C         2.01858398021440      -0.82224062402506       0.49650921223572
C         1.63047822868301      -1.32369837649840      -1.90103832555625
C         2.57189752152653       0.89952296261876      -1.21308198627052
C        -0.03440439084792       1.25475384357622       0.38399908213672
C         1.78930416526596       0.11898586270061       1.66527723030985
C         0.35451909336950       0.63116881799299       1.72307191225463
C         3.00219010581026      -1.87267482577781      -2.24172238355622
C         2.26460592420079       1.60383879056346      -2.51560723540260
C         2.89323162214177      -3.14331925190551      -3.08812104437239
C         4.27662012214714      -3.69053723732579      -3.43433397695506
H        -0.43211119546203      -0.63573396978130      -0.58759533029733
H        -0.08580613196709       0.68714056183270      -1.72866090119907
H         3.07882593885349      -1.09164927916775       0.42260805083351
H         1.41145490638482      -1.73624505189547       0.60169016808498
H         1.13640095877523      -0.90982798870780      -2.79353737492862
H         0.98042446827748      -2.11876558371166      -1.50120339718083
H         2.56219545296247       1.60542361329127      -0.37652624989416
H         3.57242530947196       0.45251501789215      -1.22196341789550
H        -1.09951121085852       1.54085004180156       0.37231543150277
H         0.54042616764149       2.17921478733814       0.20581550983033
H         2.50424267999341       0.95177489955678       1.62424583425212
H         2.04914344641657      -0.44460356046364       2.57550156023233
H         0.24644302564742       1.36758321296067       2.53452042243848
H        -0.33616022548375      -0.20338086414820       1.94657004649988
H         3.57336031245174      -2.10694314223671      -1.33103474683895
H         3.59259998265708      -1.12458643655258      -2.79202048289728
H         3.06694952850778       2.34048976736572      -2.67368149018593
H         2.27079422963854       0.92770885370405      -3.38233669377294
H         1.31421167487930       2.15589007532522      -2.49679192355958
H         2.32776198003973      -2.93190548034708      -4.01438460354358
H         2.31673759323978      -3.90609553072056      -2.53353358153379
H         4.85076853408513      -3.90976750674399      -2.52050821476644
H         4.85652328799389      -2.95571945157289      -4.01369635265590
H         4.20273519744925      -4.61393137227240      -4.02656376958666
P         6.45886550494926       0.78814556284083       0.71846073453580
F         6.37447066543108       1.65400781870736      -0.70789830470739
F         8.10570728617927       0.91606735686391       0.73705451124267
F         4.76255575635911       0.58332253997633       0.74791518704409
C         6.22058556087180       2.58073934963762       1.55890062613165
C         6.47735153538514      -0.82515194820969      -0.46501920729916
C         6.64312866018016      -0.25392058187490       2.42140064333493
C         4.89121293549999       3.36482193398153       1.26617735794809
C         7.81973050259598      -1.33153854180371      -1.06275114496843
C         5.37850950738221      -0.64157863680167       3.23860177152682
F         7.22918302367202       3.39688492103442       1.10341049193882
F         6.28537670923552       2.60307021822677       2.93607099815926
F         5.70312087724790      -0.54877070569711      -1.59126132367347
F         5.85996390094041      -1.91949248671964       0.11479192472653
F         7.45697816411581       0.42480371050220       3.29530257503865
F         7.28748252190853      -1.44884249612263       2.17209912783502
F         5.02587757593531       4.64702098077665       1.69885636311379
F         3.83593390931743       2.82855565448462       1.94734795882187
F         4.54434911019181       3.41624783600688      -0.04384591896697
F         8.40455886645771      -0.36273325965221      -1.80124994283636
F         8.68720230141674      -1.75449140738967      -0.12280219704444
F         7.56689634464441      -2.39248901063155      -1.89503680283561
F         5.73799306389898      -1.26880998800896       4.39107391026261
F         4.57581275699209      -1.50411728863429       2.55166707637466
F         4.63674621597828       0.44133876073362       3.57448427549459
