44
C14H23F3N2O2 optimized with DFTB in AMS.
N         0.60028588960407       2.08485382477198       2.00355436297459
N        -1.49327903746639       1.75954174877819       1.62446829051343
C         2.00126753946137       2.41501739532836       1.75702946862237
C         2.82004174089321       1.16087675604436       1.44364582337690
C        -2.74801377047621       1.62715993885323       0.89201094951455
C         2.36273800115362       0.47473651276969       0.15322216992264
C        -3.03692092920038       0.15900244462138       0.56877467258036
C        -0.31433213202536       1.96702060083038       1.04635337416361
C        -0.00478479115120       1.93691610520883       3.22198783396291
C        -1.32739070957856       1.72910368857427       2.98361468608659
C         3.29216134364081      -0.68251275698655      -0.22480089121893
C        -1.99992718399633      -0.44253422597173      -0.38516978366482
C         2.80838294891645      -1.38175660555753      -1.49376922782591
C        -2.34835056835160      -1.88515938899279      -0.74472484524234
H         2.38673071884289       2.91008706743979       2.65115925041811
H         2.02315056599860       3.11478800478094       0.91681867438064
H         3.86328001593503       1.47335119142964       1.34236208313228
H         2.75574931053878       0.46233854322696       2.28404852316851
H        -3.54353904236048       2.04468034551977       1.51357806063526
H        -2.65318483768059       2.21999411027902      -0.02243588547486
H         2.33772109571725       1.20841449563306      -0.65881156683246
H         1.34638638353214       0.08770370585644       0.28769090387076
H        -4.02820785453001       0.11290413343275       0.10902956581515
H        -3.06804695262457      -0.41740894861461       1.49877586086724
H        -0.14057549816845       2.05101619235874      -0.01042943902439
H         0.54312467114129       2.00108550900227       4.14575388692916
H        -2.15127381559181       1.57728564514791       3.65868949439979
H         3.33058846661700      -1.40355392101018       0.59909699997944
H         4.30532399744468      -0.29891060664571      -0.38240202879282
H        -1.95153521783885       0.16150881398242      -1.29660359632884
H        -1.01197806370219      -0.41758998226523       0.08743444833073
H         2.77907621517835      -0.68015163124768      -2.32800946346410
H         1.80671847568787      -1.78922905917933      -1.34752584718894
H         3.48242648994776      -2.19918744493467      -1.74956799556692
H        -2.38372911552498      -2.50541155137642       0.15188305568625
H        -1.59411971584076      -2.29031566569227      -1.41898031580616
H        -3.31896270743090      -1.93221697056282      -1.23941119862435
C         0.15360229664456       5.75321443035340      -1.85592584928471
O        -0.89890628606389       6.03243287216473      -2.35725632700112
O         1.27867293597553       6.15526704634145      -1.74627360296759
C        -0.00107643399912       4.22723603683577      -0.94966302165362
F         1.01082265643009       3.32486648700320      -1.16259606091451
F        -1.14140028645620       3.50331398852609      -1.17392953487908
F         0.01062975475750       4.40635082884251       0.40971182432518
