34
C8H15F2N3O4S2 optimized with ADF in AMS.
N         0.15048943905979      -0.86044610257530      -0.62847403270860
N         1.92258770832546      -0.42252696463829       0.54702601526537
C        -1.20523622920596      -0.77575584555961      -1.19607010020016
C        -1.27816551644765       0.18782142280042      -2.37439367369798
C         0.65178970319320      -0.06220121092687       0.32323040204943
C         1.13514855515649      -1.72896812170239      -1.04480698809467
C         2.85251597369044       0.26302545866434       1.45656187956126
C         2.24635530802958      -1.45665128805775      -0.30310109414082
C        -1.13903370829457       1.65058682190574      -1.97088963976334
C         3.73230789931076       1.25663051082254       0.71732524014626
H        -1.87786325253417      -0.47271247669880      -0.37724710040874
H        -1.47551220048505      -1.80004045183501      -1.49304906973200
H        -0.49926629195498      -0.08453853236979      -3.10314502981525
H        -2.25336981752551       0.01614480149152      -2.86262769006023
H         0.12241299482248       0.73937445364236       0.82098487402537
H         0.97955481627022      -2.42057933048400      -1.86282357277396
H         2.23729308303813       0.75147610532604       2.22711503926152
H         3.44207984296311      -0.52201335214443       1.95472663738306
H         3.24169339792815      -1.87933294413109      -0.34031814435502
H        -0.14844195742585       1.85178987225922      -1.53832219263970
H        -1.92428985371874       1.94666229972982      -1.25457909280419
H        -1.22598847838609       2.29547992854708      -2.85707319377128
H         4.36216962328596       0.75380470010627      -0.02906494745317
H         4.38227736405152       1.77081274410931       1.44003273685887
H         3.12341949429083       2.00036194958075       0.18524372561097
N         3.15072466786498       0.65058003038847      -4.51259549712451
S         1.94966853722643      -0.30193096252705      -4.99409734902665
S         3.31689911972441       1.03799992321954      -2.97975602315883
F         0.67377757783867       0.76574221336067      -5.07595934696449
F         4.10229397370121      -0.31761148109106      -2.34893236159903
O         2.18829293494186      -0.68298473348780      -6.36628938365483
O         1.47923357329117      -1.28954218053894      -4.02643538037961
O         2.10004461650085       1.09393226412409      -2.17118332428573
O         4.31077161517287       2.08157287919001      -2.84557017014933
