43
C13H27NO2 optimized with DFTB in AMS.
N         2.24305306785238       0.22933082973562       0.10645534291436
C         2.51156881237623      -0.56581707576805       1.34823713816901
C         3.29900156696549      -0.26115491884293      -0.83092094941069
C         0.88532846687093      -0.05521022874221      -0.47400511888497
C         4.02884116631745      -0.60403937388881       1.46893569161479
C         4.54833498356409      -0.45284810203619       0.02897064695574
C         2.41058369880133       1.68254324822305       0.35410553417289
C        -0.25943145750921       0.45047630789516       0.39741754876996
C        -1.56920213911431      -0.23738702243224      -0.01097316943042
C        -2.60018966605416      -0.12410557025411       1.11539645280655
C        -3.90405671965312      -0.83684908715080       0.74693137854313
C        -4.92107242073657      -0.75720910512059       1.88439041253057
H         2.09478436930027      -1.56597265518297       1.16863583042041
H         2.00083096011617      -0.12245381924438       2.20064426209107
H         3.42891316088047       0.45210462973716      -1.64587750738749
H         2.95293865586187      -1.21584163110817      -1.23238270856214
H         0.82176265953451      -1.14549940974827      -0.55982869374668
H         0.86301798421499       0.39697799094100      -1.47012598865807
H         4.34313505998515      -1.55125311234639       1.90959430724294
H         4.40255627142700       0.20497264477983       2.10145272382988
H         5.21845269075794       0.40528414030243      -0.05826695502005
H         5.09142774705334      -1.34104750155484      -0.29789992190862
H         1.73188351144704       1.98555355432462       1.14781316602897
H         3.43586760863905       1.88393528926373       0.65614469745178
H         2.18112373838430       2.22787127261356      -0.56015240777393
H        -0.05178734112408       0.19291628853060       1.43885215311854
H        -0.36480044513737       1.53699876222333       0.31659199287282
H        -1.37302654606466      -1.29635847224884      -0.20429819328211
H        -1.95666326178260       0.20798459214060      -0.93394656708024
H        -2.80291193371019       0.93178402632773       1.32776057374376
H        -2.17841779167387      -0.57693605108724       2.01900387650779
H        -4.32966905247406      -0.38359573897213      -0.15568279976473
H        -3.69155568454692      -1.88797473748228       0.52486670819311
H        -5.16191050757277       0.28274329399477       2.11114996884180
H        -5.83997535036438      -1.27319265314839       1.60389338266713
H        -4.52114722795928      -1.22448333425408       2.78518824532935
C        -0.87514772465294      -3.84981758694387       2.08537017741916
C         0.07753754166482      -2.69406386197747       1.69905834229596
O         0.10717725478883      -1.70866607571345       2.46303127175530
O         0.73440798211204      -2.83949686719608       0.63915366125669
H        -0.83841002954515      -4.01402718296260       3.16081924444555
H        -1.89091944475770      -3.56445470057468       1.81087648384655
H        -0.60241450018231      -4.75933085985116       1.55393048207458
