52
C14H18F18NP optimized with DFTB in AMS.
N         1.63944846207137      -0.33328818573143       0.48896401340833
C         0.40530624723576       0.48157791836732       0.72474758375311
C         1.10750793791942      -1.70006924452751       0.18086941534186
C        -0.55061630268360      -0.44924414761152       1.46652712716223
C        -0.11429008913089      -1.87077160234163       1.07905534188403
C         2.42576115506303       0.24211280479285      -0.65193540260244
C         2.46223965818137      -0.36216285829372       1.72786785539237
C         3.65046680183160      -0.58176954461919      -1.04764224137062
C         4.32625300583153       0.05483168210885      -2.26003217199568
H        -0.00016789910920       0.76214850291756      -0.25017054173024
H         0.66528056224812       1.38256328604037       1.28104293572356
H         1.88139255080241      -2.43929138323606       0.37179129000453
H         0.83143755623457      -1.71830237631356      -0.87544284540450
H        -1.57975074298850      -0.24506172148129       1.16681493924139
H        -0.47602237549960      -0.30074485179528       2.54555430028897
H         0.13978843950337      -2.45279728785958       1.96594569586082
H        -0.90222698145210      -2.39967448363438       0.54088434837473
H         2.72257280387669       1.25144037093921      -0.35230854373618
H         1.73977053948940       0.31883152564435      -1.50067567766032
H         2.79160828785891       0.64935223859025       1.95799733334543
H         1.86560346007767      -0.75798750936822       2.54533119011140
H         3.32031638976828      -1.00665301914614       1.56970814511929
H         4.36385853922688      -0.62619922388632      -0.22364001495600
H         3.35249297300235      -1.60301962824520      -1.29173199452816
H         5.20565622806209      -0.52915882245572      -2.52763665794296
H         3.64859115400468       0.07639948975059      -3.11449220239454
H         4.64006930855128       1.07492931163279      -2.03562189454796
P         4.46580401891639      -4.34151640314979       1.48591800759705
F         5.38045781646942      -4.71274960485011       0.13678767106468
F         3.93170637011685      -2.89867770475231       0.68593501910398
F         4.93328736488112      -5.71118086462229       2.30835258061105
C         3.00727463770938      -5.35704610419702       0.65584563168516
C         6.07321115847567      -3.42358512985520       2.13481369559958
C         3.29156410989567      -3.72525092393020       3.00394530810992
C         3.37562842219036      -6.42250391382159      -0.41328817676631
C         6.43199570344470      -2.04510744389591       1.51844035521252
C         3.15834719615135      -4.48073457313860       4.35213975502579
F         2.10596513802094      -4.54517073957811       0.04878177644192
F         2.34658713069292      -6.00314290417169       1.63134095924308
F         7.12269291759534      -4.22314193783323       1.89299459245681
F         6.01916583530317      -3.24592334530929       3.46723648995295
F         2.02481585496555      -3.59230269744657       2.52504999457956
F         3.66953530490156      -2.46149715835100       3.32480721250701
F         2.31172406762571      -7.19264047647125      -0.66249071588359
F         4.36470465447033      -7.20989574892528      -0.01624526129516
F         3.72198419598217      -5.83929799332568      -1.55919333676166
F         6.46529985123949      -2.08700835421638       0.18893347315072
F         5.53594042309495      -1.10562109647669       1.86575862034221
F         7.62147664148345      -1.62891110078356       1.94462817746017
F         2.36582928836085      -3.78105730743540       5.17569084704337
F         4.33434186620593      -4.62821771056749       4.94752023723795
F         2.61415081332979      -5.67984078513277       4.19133085873877
