55
C17H32F3NO2 optimized with ADF in AMS.
N        -1.24594222443301       0.69461849479561      -0.22100259513277
C        -1.64481385417448       1.79117861880760       0.74142422375545
C        -2.35959351481110       0.50712031600321      -1.24981601505833
C        -0.00010779510092       1.11688431094220      -0.98818516945161
C        -0.99328629673022      -0.59445964572491       0.54016352943285
C        -2.99656844062690       1.55537803526275       1.39989298559035
C        -3.71703632817000       0.26144383753420      -0.61792738208751
C        -4.09578851068426       1.37829318139732       0.35360502091247
C         1.22501999052874       1.39194422475067      -0.13659992619937
C        -0.34726435435934      -1.69953776896407      -0.28070045674839
C         2.42141164593213       1.66215488513571      -1.05463968764125
C        -0.46217946743109      -3.04216517201600       0.44163764370477
C         3.70113580895834       1.97252223563468      -0.28201733687031
C         0.18837942390531      -4.17950456618607      -0.34512728896140
C         4.89052794915476       2.22987046264556      -1.20424905004565
C         0.06206031056874      -5.52638162388930       0.36153820017391
H        -1.66597736379653       2.71432705725468       0.14007331140133
H        -0.84252331880553       1.87854504888237       1.48654059281878
H        -2.01885195651606      -0.28719809104642      -1.93228589126992
H        -2.34895017891310       1.42176749396638      -1.86209929338073
H        -0.29661901690819       1.99460244663317      -1.58065299354893
H         0.16486242691402       0.31786822440452      -1.72924389759803
H        -1.96693686488217      -0.92569832562957       0.92238986335086
H        -0.37320243762318      -0.32740258838059       1.40979835421478
H        -3.20180178645963       2.42514396729137       2.04654783417545
H        -2.95291510377289       0.67867108491660       2.06861666493773
H        -3.75677751503693      -0.71945453776644      -0.11238304703950
H        -4.44105083399107       0.20219131971438      -1.44751500364996
H        -4.21395984166858       2.32146542017110      -0.21047820171931
H        -5.06166365409002       1.16971520416540       0.84088727957286
H         1.07737645529422       2.26646898075375       0.52109276051839
H         1.46641480576800       0.53337075738815       0.51432138521116
H        -0.80452274433564      -1.76776792653187      -1.28036036759026
H         0.71621024629813      -1.47051902674308      -0.45892588897118
H         2.18209751297782       2.50365036123037      -1.72980149667575
H         2.58175471361077       0.78448345754580      -1.70623594927167
H         0.00295195147772      -2.97821571971793       1.44416126829128
H        -1.52958351162834      -3.28228801561154       0.60718408209735
H         3.93175734470877       1.12967167064314       0.39564986755165
H         3.53464544465114       2.85409227894278       0.36461385911653
H         1.25433044009712      -3.94201216091920      -0.51203328435649
H        -0.27398419149780      -4.23242903810723      -1.34672654389344
H         5.80478479536903       2.44848494045718      -0.63126005850807
H         5.08996919226468       1.35366337242385      -1.84151538717238
H         4.69441601328019       3.08575087573645      -1.86958106901275
H         0.53632275294277      -6.33049812908717      -0.22147013485733
H         0.54249242479547      -5.50063523885224       1.35325424669390
H        -0.99587126673499      -5.79732999566193       0.50940080451319
C        -0.66975534686759       0.23252597126838      -4.13405039127324
O        -0.54346577550582      -0.78553802646928      -3.39402472308584
O        -1.02689227216532       1.40083225834176      -3.86282297770507
C        -0.26002948576739      -0.01465635031596      -5.62489532090117
F        -0.80259219976376       0.88997060922741      -6.49001650036109
F        -0.61704368193493      -1.25648673137923      -6.07437715973927
F         1.10905789028887       0.08042398123154      -5.75799532185708
