44
C12H24F3NO3S optimized with ADF in AMS.
N        -0.29768465669153       0.13617691615992      -0.02760917309134
C        -1.07272730609265       1.02714493281484       0.93937993421262
C        -1.09748272321882      -0.01906063508979      -1.30380307074720
C        -0.02828971718589      -1.20046833345381       0.64945188557451
C         1.00484893538911       0.82991889958153      -0.39849147823429
C        -2.50254003504841       0.56896312931116       1.17129881078703
C        -2.50256742433492      -0.54582090998045      -1.06562115153953
C        -3.27418933878874       0.38601812350568      -0.13168746853076
C         0.67298187884282      -2.24162055197106      -0.20425063297398
C         1.99692699847690       1.02358202029984       0.73389413205762
C         0.98665693616097      -3.45740825321913       0.67389782010624
C         3.17417495352482       1.87469727878485       0.25884663891040
H        -0.51960326456154       1.02494378462088       1.88433358157082
H        -1.04643084817924       2.03405557201605       0.49003963286822
H        -1.14213947111481       0.98764463695711      -1.75233345345255
H        -0.51489866740986      -0.66662912701214      -1.97341272095585
H         0.55173039204686      -0.96276063621361       1.55566989354365
H        -0.99573197683600      -1.57383244256472       1.00521761906869
H         1.44901044358345       0.23778069456786      -1.21365217804122
H         0.70377364104800       1.80245241267632      -0.82139910096226
H        -2.49830602120062      -0.34793833845177       1.78007333937520
H        -2.97192451160299       1.33593028366527       1.80913979619644
H        -2.99687767223108      -0.62618734521410      -2.04829237370346
H        -2.46483804974230      -1.56586642404697      -0.64712836829438
H        -4.27909599604733      -0.01700581266677       0.07005102178946
H        -3.41305019138775       1.36351783288995      -0.63199324438613
H         0.04595713245097      -2.55764766722387      -1.05614349433170
H         1.61585301820732      -1.84683630373521      -0.61968376766028
H         1.51959562729234       1.50481076485497       1.60004635467402
H         2.36333618741094       0.05446247773957       1.10230017660981
H         1.50482384003795      -4.23392315164218       0.09297422975147
H         0.06424833064371      -3.89482052166202       1.08643918548668
H         1.62351732755890      -3.16810398871028       1.52328993239073
H         3.89207062948758       2.00299771858445       1.08159216753299
H         2.84671763183623       2.87714976528218      -0.06055031021674
H         3.70694098454778       1.40444077451459      -0.58322356440603
S         0.20057365888796      -0.55965607137260       4.30869750577085
O         1.35897094932929      -0.38315958571455       3.39726495388556
O         0.44318068128321      -1.34524853230198       5.51605986675327
O        -1.07050551483621      -0.81579319707023       3.59527839365711
C        -0.06098848917547       1.18421956788456       4.96586963841857
F        -0.19581494092929       2.09333186114977       3.93279571256231
F         0.98182538751602       1.60139715679849       5.72483605513955
F        -1.18994871314766       1.27003047635738       5.71441798923389
