61
C19H39NO2 optimized with ADF in AMS.
N         0.75471201814726       0.94953944574944       0.32861290076299
C         0.42957741931708       1.91304540191124      -0.80281880204182
C         1.35343236079414       1.75946754992985       1.47671473074419
C        -0.45630624864355       0.19467454853804       0.81935441283442
C         1.83271740231692       0.01728641944176      -0.20912185747973
C        -0.52259893033050       3.01553867155784      -0.37805365282699
C         0.46169902747522       2.90855581928234       1.92107892958659
C         0.10334633099053       3.82767319145489       0.75512896719614
C        -1.16634469899724      -0.66098561913784      -0.21704216326408
C         2.18500295308071      -1.16153799479799       0.68339102200816
C        -2.32128183343848      -1.43089454585312       0.43063133046134
C         3.42449119392401      -1.88476129609040       0.13272122610176
C        -3.07714265729321      -2.31526648971469      -0.56018038482028
C         4.73181895871201      -1.13522991452667       0.38713603352830
C        -4.23250288075481      -3.08297851457831       0.08084262420994
C         5.94268738043628      -1.82284517379124      -0.23939650506077
C        -4.98183138305876      -3.96330853566395      -0.91616247122247
C         7.23133082479667      -1.04052533670188       0.00385179624978
H         1.40577483290919       2.38241271227012      -1.08107355389662
H         0.04121385609329       1.30852784449370      -1.63344745181285
H         1.53357481671765       1.05219778304072       2.29888983831369
H         2.32716121537450       2.11665642612866       1.08279654452285
H        -0.10857406950695      -0.42684000189422       1.65782901021140
H        -1.15120645967359       0.93806417129902       1.22969788690582
H         1.47341819968523      -0.33443339289243      -1.18857385713545
H         2.70554330503488       0.68583466442933      -0.35652564978464
H        -0.67925002536870       3.65488491137451      -1.26301767803613
H        -1.51573797971640       2.62488454871498      -0.08834361483482
H        -0.45309000914975       2.54018336511550       2.42014065597122
H         1.02884266176451       3.46358105330616       2.68788331693827
H        -0.57867078187510       4.62554053746650       1.09038972665173
H         1.02616843264366       4.29131649573535       0.36466282220517
H        -1.56446251154288      -0.03069333157095      -1.02930912466353
H        -0.46576292075813      -1.37801689160882      -0.67593482102163
H         1.34601814497531      -1.87621231078973       0.74598871237704
H         2.40814920626929      -0.82134410286365       1.70854531584915
H        -3.02795437525261      -0.71657924363175       0.89272641367703
H        -1.93023628752500      -2.05854672195383       1.25336225587710
H         3.29598875840358      -2.05062700477337      -0.95381415856662
H         3.47939351667360      -2.88900716361753       0.59016479505015
H        -3.46825563260840      -1.69154744651493      -1.38606050356872
H        -2.37338173042080      -3.03390961181486      -1.02057510664912
H         4.66882007836549      -0.09737726204557       0.01696614825033
H         4.88884703336919      -1.05406347553857       1.48017727773717
H        -3.84170641001431      -3.70720797090310       0.90519450225055
H        -4.93531532477724      -2.36562136314406       0.54269967122276
H         6.04335327985320      -2.85017234673883       0.15952867770819
H         5.77705478071534      -1.92830343399817      -1.32755852368966
H        -5.80383910975716      -4.50962173006363      -0.42881510741283
H        -4.30717097078355      -4.70537999925516      -1.37230160563866
H        -5.41325363847356      -3.35893940498331      -1.73015850404342
H         7.14761797200752      -0.02328979579203      -0.41033400124505
H         7.43155924386150      -0.94226590474751       1.08284677198413
H         8.09971366044061      -1.53451823419321      -0.45942313484738
C         5.24222043695748       3.84970498255964      -1.13586143005189
C         3.94273929494828       3.12965730585085      -0.75777222908186
O         4.05237403334511       2.09521668795451      -0.01911837422958
O         2.86715257300068       3.61351888032392      -1.21791472911864
H         6.08680078332642       3.50176133052334      -0.52562419774060
H         5.46288281384893       3.65076007847869      -2.19686493083733
H         5.11825416154536       4.93772395195441      -1.03183563956419
