33
C9H15F3N2O3S optimized with DFTB in AMS.
H         3.33726495206252       0.83559713496055      -2.09163955280497
H         2.09082210444441       1.68601861630898      -3.02240758376704
H         2.63137188110178       0.05794409498875      -3.54088197332813
C         2.43405938991747       0.70899473239006      -2.69041783451399
H        -0.00638620170114      -2.18511905265062      -0.04113043757572
H         1.99627121024566      -1.94985853827347      -1.93925726892383
H         0.36028759832552       1.85635324355235      -1.17698327700204
N         1.41056331872502       0.10997394827039      -1.85131197646323
C         0.51225859890127       0.79131642691869      -1.14542868425352
N        -0.14163902310989      -0.07034197843771      -0.37167712053928
C         0.36407017531460      -1.32606222272236      -0.57170192166022
C         1.34621769893236      -1.21164939836044      -1.50345838288874
C        -1.07952117730913       0.31353195518721       0.68041142784609
H        -1.16646619473471       1.40167243751570       0.64163235572773
H        -2.05340569297295      -0.13779824665280       0.46739126806547
C        -0.53550217812194      -0.12858903244430       2.04399156986575
H         0.54701219189121       0.02036043080384       2.05384373768459
H        -0.73612137622404      -1.19387867803844       2.19469117472556
C        -1.16811049582301       0.69830678799172       3.16605957518175
H        -0.93933134826702       1.75460932881765       2.99762185807030
H        -2.25699494336303       0.57639631289688       3.14911452001501
C        -0.62114676341859       0.27489265745456       4.52783348469049
H         0.45864595054767       0.42101799469736       4.56288616896463
H        -0.83747006426149      -0.77721434634317       4.71972900664310
H        -1.07952272630015       0.87406029706742       5.31451342113665
S         2.29454170760284       1.98918694356897       0.79623673182896
O         2.73928219969011       2.48916531000072      -0.49817577391415
O         2.53147055124846       0.56773918829060       0.99442303041553
O         0.95227058396550       2.42319724109921       1.16461387468415
C         3.39506968060110       2.82171177340459       2.02565198523841
F         3.27561092565772       4.14096077561941       1.95319320545974
F         4.66534939089283       2.50263076908654       1.80778625187709
F         3.07299560593900       2.43917060013117       3.25765934151383
