31
C9H14F6NP optimized with ADF in AMS.
N         2.21593199457761       0.00329552297834      -0.47872682666104
C        -0.22120980505638      -0.18059618271355      -0.03412461610998
C         1.18427641191785      -0.47793501796052       0.47200380201203
C        -1.28153742440221      -0.66655409898122       0.95485629887512
C        -2.69592325898055      -0.37604837410914       0.46072131785832
C         2.55834903218454       1.30723035758879      -0.46094888475802
C         2.83333517630055      -0.86417263766260      -1.30450187024868
C         3.53003345759661       1.79093611560906      -1.31378975221635
C         3.80983447705089      -0.42846236781892      -2.17843085827861
C         4.16738499493479       0.91518286564136      -2.18479930338960
H        -0.37239321524881      -0.66707540190878      -1.01537944912618
H        -0.33857726487783       0.90685906276885      -0.19486463220370
H         1.36223398228477      -1.55183727668378       0.61029274847975
H         1.41181620302243       0.00699764740088       1.43205044176759
H        -1.15832159114663      -1.75185415510699       1.12086865383860
H        -1.11793502691714      -0.18058303067586       1.93339283927959
H        -3.44798839109777      -0.73193873346169       1.18041022680874
H        -2.85014068962347       0.70527987570807       0.31830909886566
H        -2.88797723513046      -0.87426307732593      -0.50289212862531
H         2.05201303910591       1.92557465214782       0.27538052559257
H         2.54080993183723      -1.90671308590289      -1.21107609897482
H         3.80727157336102       2.84248615391557      -1.25754007786731
H         4.30962273899079      -1.15412640302797      -2.81805677266182
H         4.96332612466276       1.27105586042082      -2.84045207476924
P         4.79977188571981      -0.53904820759145       2.00748848158560
F         5.97113497275663      -1.68021972937745       1.96865895271072
F         5.80529566728729       0.55144316946486       2.69749300688296
F         5.24360780990945      -0.00748414332606       0.49000118656985
F         3.56604339807380       0.61998775443319       1.99901557048742
F         3.73351451294208      -1.61648048303189       1.26651360003277
F         4.27334859276449      -1.05511683701093       3.47200974844339
