49
C15H31NO2 optimized with DFTB in AMS.
N        -0.36254883881062      -0.16559170903133      -0.55024879760161
C        -0.96022610999955      -0.74830825167544      -1.80754701681941
C        -1.36684419240762       0.73446826912198       0.10575284939640
C         0.80925206425682       0.66671858104203      -0.98597938905154
C         0.05197541595909      -1.25428824379973       0.41360163083909
C        -2.32160714408344      -1.39515126888191      -1.60281916369237
C        -2.69465947993266       0.03960519627916       0.38421840324549
C        -3.31117509540458      -0.45910150782939      -0.92017833089881
C         1.53606744795421       1.39516968531421       0.14415194432479
C         1.35269754178966      -1.97412940776587       0.06774237754044
C         2.85495055744493       1.97269987767817      -0.38484971871715
C         1.56592486399733      -3.10681421878530       1.08082757849920
C         3.60046309876814       2.73291725656828       0.70976838677196
C         2.80418827493374      -3.92480451012728       0.72373415601571
H        -0.26670489825730      -1.51179652588757      -2.17565577143771
H        -1.03272030072478       0.07045726835776      -2.52975720044139
H        -1.52663087112581       1.58235494546834      -0.56770298079183
H        -0.92963979228440       1.10030002767607       1.03685257378274
H         0.43099627172898       1.39949773007059      -1.70402048528403
H         1.49274456668306      -0.00135164139380      -1.51338335079109
H        -0.75002531331416      -1.99852790940406       0.41676325028547
H         0.12180726055724      -0.79779189195871       1.40478361415839
H        -2.21092920957804      -2.31175659740288      -1.01559494037085
H        -2.68705683242201      -1.67910140482762      -2.59257660609674
H        -3.35189428135575       0.76921965888609       0.86537071386144
H        -2.55077230265908      -0.79353112018619       1.07636477038258
H        -3.54514263588696       0.39489386219765      -1.56631536335985
H        -4.24052610424339      -0.99264090847881      -0.70892006823160
H         1.74915316691256       0.71636608101153       0.97253231199161
H         0.91596101976639       2.21055271269342       0.52750684602052
H         2.21249362073970      -1.29833835742511       0.10312625387252
H         1.28141806710970      -2.40200176798942      -0.93572717798412
H         2.64747672256952       2.64596200323241      -1.22312166492056
H         3.48384953089927       1.15721679097985      -0.75616603835330
H         0.68670524686666      -3.75718763441073       1.07951846644526
H         1.67694200972156      -2.68387832089355       2.08631051367042
H         3.83123379701521       2.07071020059740       1.54498171205151
H         2.99641002139353       3.56236379740674       1.07963263420201
H         4.53402559250812       3.13173252768945       0.31361212823352
H         3.69780154644674      -3.29749550411184       0.72417551293613
H         2.69015191499150      -4.36798786975401      -0.26600005206087
H         2.94142712700760      -4.72637225176912       1.44965300433872
C        -0.56932847909784      -5.82054108747710      -1.58803080945898
C        -0.62465230828809      -4.29706693965710      -1.31859384125977
O        -1.18297539223785      -3.93293359604052      -0.25815805099170
O        -0.09188763934524      -3.56329632760126      -2.17704301514281
H         0.43788323238645      -6.17128462037264      -1.36303307056494
H        -1.28306576615451      -6.34496199136400      -0.95576120777994
H        -0.77957229189393      -6.01547275226882      -2.63818852976294
