31
C7H16F6NP optimized with DFTB in AMS.
N         1.02570903056434      -0.51945082318418      -0.06792133435830
C        -0.38658374651573      -1.00594519015822      -0.01768761717709
C         0.99840024244619       0.72653750993570       0.76921209902278
C        -1.25141568453549       0.25377789069397      -0.03917776723144
C        -0.34099741294601       1.38600496525387       0.46347742761966
C         1.99323158176331      -1.51508431180240       0.50808512404743
C         1.41255052704693      -0.17212022024724      -1.46203310235967
C         1.94863476946866      -2.87608065715478      -0.16527387787693
H        -0.51338227099107      -1.55272014529218       0.91936221503258
H        -0.57789093892368      -1.67367787377793      -0.85774645489273
H         1.86205430782580       1.34263703663353       0.52559502217954
H         1.06232276071401       0.42304224188266       1.81491451215298
H        -2.12171278368374       0.12041030968477       0.60559401935556
H        -1.60771244907042       0.46092009753762      -1.05035347023347
H        -0.23248504652345       2.16074654960832      -0.29820750504166
H        -0.74267857143222       1.85246180176100       1.36421604671027
H         2.98778521068856      -1.07936894384022       0.41279650539579
H         1.75557001831294      -1.61101820876324       1.56957936200620
H         1.33147729527945      -1.05584260687588      -2.09057341668578
H         0.74846078701580       0.60381629899367      -1.83524537110462
H         2.43846257499645       0.19116965404913      -1.45217485385509
H         2.68199763828948      -3.50841229861906       0.33427831230511
H         0.96999757992927      -3.34616427775613      -0.07251666420082
H         2.21618903150569      -2.81513664914238      -1.21888856958392
P         4.75672381380962       0.83394507113025       1.32469272469977
F         3.35202556508707       0.37593815882971       2.14010156834695
F         3.83207226608357       0.88008363805937      -0.10648545314129
F         4.35986522076584       2.39902922964835       1.58394790830546
F         6.07226867442323       1.25594931502515       0.47168825604676
F         5.59382754756223       0.75265039598399       2.71112543849230
F         5.03520510484335      -0.76859695779723       1.01621545782368
