55
C17H36ClN optimized with DFTB in AMS.
N        -0.34799460416185       1.87326126195090      -0.20510521962278
C        -1.19036205016519       2.35843028002870      -1.35328073746544
C        -0.24892344968193       2.96996483137389       0.81312283261331
C        -0.92557492341784       0.64510086569996       0.44544111414597
C         1.02464028952768       1.60835612267465      -0.77455737621654
C        -2.57432050126113       2.81296090300059      -0.92091774938611
C        -1.60803253115129       3.47127060193687       1.29256341799252
C        -2.47520376632405       3.92793500544304       0.11942188741442
C        -1.02118127405899      -0.58808120912044      -0.44846233293426
C         2.01263346324229       0.95308380822915       0.18322908057344
C        -1.59045150275764      -1.75713425387724       0.36149248327144
C         3.35979420144801       0.80428237189093      -0.53759857821791
C        -1.68596425349579      -3.01294344594843      -0.51060170501990
C         4.40151654093122       0.07505031321135       0.31769203560944
C        -2.25973075384972      -4.19478000860902       0.27615525597195
C         4.09848372859928      -1.41986332667627       0.47181156845065
C        -2.34629809494716      -5.44891810474453      -0.59218920340305
C         5.20292756096268      -2.13040612381323       1.25256713008970
H        -0.64831777298036       3.19704895332629      -1.79852163555582
H        -1.23658254551502       1.55205710217363      -2.09324765557307
H         0.33325544453906       2.59392676252474       1.65691195797959
H         0.30098192768360       3.79015483502023       0.34333289060607
H        -0.30432237211709       0.43193814658542       1.31960149163237
H        -1.92309916728888       0.90612777117310       0.80372017209135
H         0.87781260664885       0.98058484092599      -1.66345904066701
H         1.41212932217968       2.57619245177847      -1.10406238846800
H        -3.08869436428553       3.18284557001631      -1.81137673018174
H        -3.15727795527340       1.97641656345496      -0.52716120178128
H        -2.12467783319198       2.69520285158653       1.86347001034946
H        -1.42538923585986       4.31083244096396       1.96897938396203
H        -3.47088420407049       4.19431292570296       0.48182939438605
H        -2.02988897391566       4.81714732817624      -0.33849257212116
H        -1.67054899601964      -0.39048070851954      -1.30265107614717
H        -0.04137737009672      -0.86347804886594      -0.83933247224233
H         1.65456933192499      -0.03433327682161       0.48148864396029
H         2.14754136703400       1.55364422408233       1.08887215823742
H        -2.58452008268038      -1.49401238151579       0.74065973155241
H        -0.94529201707002      -1.95668439553099       1.22502311886435
H         3.74000695456185       1.79989052044866      -0.78804580393411
H         3.20879040984363       0.25912223491255      -1.47435514776622
H        -2.32249886945522      -2.80452969237984      -1.37623903799866
H        -0.68954591811812      -3.27012138150269      -0.88354627423806
H         5.37862457184188       0.19018687078051      -0.16273410176790
H         4.46106130230240       0.54418170830760       1.30625243750862
H        -1.62503837215173      -4.39723865915193       1.14618916258045
H        -3.25891085364280      -3.93764915114381       0.64504534490428
H         3.14636009956767      -1.55728648927778       0.99493766489694
H         4.00407781803815      -1.87425322086868      -0.51982626248131
H        -2.75641862079020      -6.27758443595888      -0.01424845132141
H        -1.35665155926755      -5.73230505078080      -0.95280896818691
H        -2.99152372110239      -5.27255153932021      -1.45372575086482
H         6.16142287047927      -2.02322321573584       0.74322321530334
H         5.29364025804726      -1.71138463041027       2.25586092502447
H         4.97287349777053      -3.19247283594269       1.33998675594737
Cl       -0.11070930550835       0.14796907173605      -3.42141449745677
