52
C16H34ClN optimized with ADF in AMS.
N        -0.17393173245249       2.04093981303176       0.14526770181498
C        -0.87158870143044       2.94288282902232      -0.86428268501719
C         0.40620075483183       3.02194264522140       1.13657242192278
C        -1.15532629653945       1.11854165874035       0.82752267724270
C         0.93274124248283       1.27313082663706      -0.56624100776895
C         0.07027247581109       4.13258662792175      -1.02175402141278
C         0.88903528639117       4.20744008115966       0.29624716314676
C        -1.83397468953679       0.12841336897662      -0.09758257611121
C         1.61757723984934       0.21686363376954       0.27868534184093
C        -2.84274427466120      -0.72194520995147       0.67261428918052
C         2.77541711293455      -0.39720875758229      -0.51278750611768
C        -3.55201748706698      -1.72517556128829      -0.23570068751192
C         3.49246399709548      -1.50287459654190       0.25711620176306
C        -4.56379278716354      -2.59450432560942       0.50662818929777
C         4.64640435029438      -2.12511845766641      -0.52631781096903
C        -5.26418032520298      -3.59588236250856      -0.40919459413898
C         5.35780448518643      -3.23226709451311       0.24744873601168
H        -1.03744861130801       2.35017569690163      -1.79909568116494
H        -1.82631235191801       3.23283397672873      -0.39814954903002
H        -0.41884605574559       3.31059080429246       1.80565804525937
H         1.18569438543124       2.52319261757468       1.72683287492978
H        -0.60308779051312       0.60968147165889       1.63363843000086
H        -1.89836363775264       1.78228764029208       1.30097174762648
H         0.46183842069461       0.85523216218839      -1.49127936422108
H         1.65711353797325       2.03387095080563      -0.89411258802165
H         0.72671949852894       3.98200332425238      -1.89218827813246
H        -0.50455577486497       5.05131575513818      -1.20626636684278
H         0.72057755653500       5.14634650707104       0.84387150963389
H         1.96904904890007       4.14026591162807       0.09839847857584
H        -2.32382704216194       0.65197537659383      -0.93515168286721
H        -1.09374090338763      -0.51863666223448      -0.59385237332053
H         2.00954304634350       0.62581421137433       1.22914308824684
H         0.90972769354633      -0.58785419199505       0.54024666002122
H        -2.33395637753609      -1.26676518293182       1.49157359284007
H        -3.59662019066534      -0.07112687754247       1.15593776851455
H         3.50011820217986       0.39436648545524      -0.77827938512251
H         2.38318506880646      -0.79313048004443      -1.46640377798329
H        -4.05644485565418      -1.17904144033590      -1.05352598146736
H        -2.79749944497046      -2.36759246160359      -0.72533921241660
H         3.87666640314034      -1.09961619479059       1.21401003997173
H         2.76593418947438      -2.29357002372094       0.52339404120463
H        -5.31568496590375      -1.94455837571401       0.99165434202089
H        -4.04960946552999      -3.13446357108579       1.32376485157605
H         4.25856337941710      -2.52497872873249      -1.48069308338092
H         5.36966411165036      -1.33342963986468      -0.79523243323467
H        -5.80610746281266      -3.07712943645160      -1.21632258042072
H        -5.98871024915336      -4.21292082913029       0.14366489470059
H        -4.53399106675927      -4.27143957259203      -0.88295355895459
H         4.65974214319917      -4.04657519817239       0.50072496151042
H         6.18297751941983      -3.66645759760696      -0.33705124193798
H         5.77795475476840      -2.84769129858764       1.19127447633673
Cl       -0.80168392029503       0.71999488706256      -3.28398926252408
