25
C9H14ClN optimized with DFTB in AMS.
N         1.06494864600272      -0.19462421365379       0.38357956446894
C        -1.33861377748886       0.03902048501672      -0.19476266037289
C        -0.30084917421773      -0.21471903330413       0.90622341366685
C        -2.75396038281181       0.03701495941728       0.38878704937268
C        -3.79908356609948       0.28996075965272      -0.69663347205694
C         1.60412343479550       1.00019811816273      -0.01037343349711
C         1.66186603571183      -1.40981021754585       0.00536218239613
C         2.87839587124241       1.08329458860454      -0.45816436557975
C         3.10787514113658      -1.29794932824669      -0.22160551388016
C         3.66974129717468      -0.10743182397577      -0.50486567173333
H        -1.25057557542343      -0.73807637658846      -0.95797172252442
H        -1.13544473506586       1.00329854013793      -0.67034704443689
H        -0.47332912037064      -1.19128612748926       1.36807277407992
H        -0.38031006168591       0.55367965440162       1.68325501574786
H        -2.95016454497743      -0.93000470721354       0.86428603568475
H        -2.83418186548434       0.81106081125955       1.16010043051970
H        -4.79917818916437       0.27482238369030      -0.26320502475706
H        -3.63660162610636       1.26202503469471      -1.16393054636301
H        -3.74159516026496      -0.47946921415788      -1.46729149817118
H         0.97801131929278       1.87287690383743       0.13772163841469
H         1.37234187490328      -2.22037977050061       0.67401399400222
H         3.30683271779345       2.03867966214710      -0.72775040598159
H         3.66941134965950      -2.22348488609378      -0.24350048286103
H         4.72731104047332      -0.02737676366845      -0.72806503586139
Cl        0.87028000177512      -2.01684285828440      -1.64994436077700
