61
C19H36F3NO2 optimized with ForceField in AMS.
N        -0.53776077593704       1.77944320431201      -0.19019972885388
C        -1.40247374762459       2.31665545288879      -1.29145826414662
C        -0.22394139050302       2.89567870870830       0.76188983732056
C        -1.20973292656266       0.65831500874180       0.55620945307299
C         0.74277861984868       1.32698294391497      -0.83603515824812
C        -2.68638856877766       3.00797154747363      -0.80265273735499
C        -1.46739659973096       3.63195041724691       1.30033099949473
C        -2.34803006840134       4.13906434342555       0.16272843950957
C        -1.50973812550766      -0.61794337300933      -0.26900937492527
C         1.77379201022694       0.65510755128220       0.10501352952906
C        -2.18421107853964      -1.67999106343014       0.61022143497647
C         3.04492952686977       0.28241910361579      -0.66906374061772
C        -2.47535513150913      -2.95867856894832      -0.18512417733321
C         4.05555372682818      -0.43309415722223       0.23549878030803
C        -3.17457061660264      -4.00331321032501       0.69273465702140
C         5.32774253365738      -0.79304698665657      -0.54034402129893
C        -3.44927885486111      -5.28581332333996      -0.08716990810101
C         6.33045071408975      -1.52019779289186       0.35079345369839
H        -0.83799348574519       3.07323857332236      -1.88577072490407
H        -1.67679375815821       1.52610694744133      -2.02003996328306
H         0.33682965795920       2.52314211864380       1.64570371488465
H         0.42275674424903       3.65612565008577       0.26932844416184
H        -0.59924282930346       0.36730182116021       1.43914698714913
H        -2.17162154561926       0.99319362371716       0.99050479510557
H         0.52778400101422       0.62565965319180      -1.67320772129272
H         1.25039231405761       2.19521256226343      -1.31770007412749
H        -3.22046482842856       3.43492371082447      -1.67901398188305
H        -3.37892491848858       2.28294801116125      -0.32805413852315
H        -2.05523967723196       2.97736934953185       1.97673800650726
H        -1.13442528843210       4.50095024790516       1.90828298946748
H        -3.28611612992062       4.56434803012256       0.57993891597193
H        -1.81646987110754       4.94879807663862      -0.38450976691392
H        -2.19516539562248      -0.38513736573080      -1.10865483579623
H        -0.57475278975168      -1.05215030457484      -0.67770032834136
H         1.35372331751112      -0.27301350404718       0.54386133906618
H         2.06003891717975       1.34334011660012       0.92614077307404
H        -3.13878557611741      -1.27214452281420       1.01066081799321
H        -1.51847966864605      -1.92611541972122       1.46693817284216
H         3.50866670304994       1.20675189441640      -1.07957065825780
H         2.77739031476754      -0.38559313929331      -1.51765678532167
H        -3.12660678109535      -2.71362684321081      -1.05317716812962
H        -1.51883519124264      -3.37874418446957      -0.56752371480075
H         4.31977946703996       0.22925523515293       1.08944299474538
H         3.59460301018522      -1.36254111388409       0.63739280596996
H        -2.53513118010428      -4.24622340571420       1.56937539561319
H        -4.14004784109395      -3.59503151112985       1.06384719683922
H         5.07022147550705      -1.44936641510778      -1.40028683519962
H         5.80143724968674       0.13292753852116      -0.93357957334685
H        -3.95975133246324      -6.01922692015884       0.57213210579281
H        -2.49643151612357      -5.73200547139680      -0.44365384502244
H        -4.10513735374994      -5.07485435892549      -0.95862139535906
H         6.62150802969277      -0.87749084065328       1.20885114350566
H         5.89165056005110      -2.46664682592990       0.73273592238725
H         7.24118523868650      -1.76294122877223      -0.23630237299788
C         3.59395875313302       4.88961699271713       1.94985212688115
O         4.47189286316098       4.10562319740150       2.27391730679502
O         2.69014276092354       5.13905817430632       2.73121356178422
C         3.62213277076822       5.55040764183217       0.60308075921295
F         2.45759787333594       5.25829397636518      -0.08117381327867
F         4.70234821196468       5.10251428365288      -0.13738040561218
F         3.72234468695867       6.92000425647231       0.76274092348988
