55
C15H20F18NP optimized with ADF in AMS.
N         1.99838947587531       0.28774529739997      -0.65915098187208
C         1.92925047227667      -0.40938797003373      -2.01601072856818
C         2.77550088523145      -0.57029843735958       0.33105546604372
C         2.73866921239684       1.60191414004045      -0.88112299764216
C         1.41205402464714      -1.83492024018004      -1.93456535230272
C         2.26335330368523      -1.99838743610125       0.41019408135912
C         2.25575219864820      -2.66238844045134      -0.96518993636966
C         0.62108519290103       0.55637732684186      -0.15185043143571
C         3.06206413732503       2.40563144294020       0.36722477352730
C         3.63634716950155       3.76303252643028      -0.04643427094546
H         2.95700658236206      -0.40604356122040      -2.40106756767275
H         1.30623055748186       0.23335621037079      -2.65720793247523
H         2.71345510181486      -0.05749595334370       1.30000921471896
H         3.81529610874156      -0.55805744121298      -0.01790626404993
H         2.10637095067895       2.18198576882158      -1.57369083371597
H         3.66713145651683       1.33333218292493      -1.40019874660541
H         1.47014552494853      -2.24858853284326      -2.95518449348149
H         0.34510740557617      -1.86113882938371      -1.65066054979383
H         1.25938809395018      -2.03760471700139       0.86956671250847
H         2.94167111290464      -2.53247912315418       1.09450203209763
H         1.86540939129304      -3.68915975685833      -0.89421690751257
H         3.29078400554681      -2.72686055792701      -1.34078319511348
H         0.68964484020183       1.05299870810646       0.82230947767455
H         0.10144228649292       1.20419025994197      -0.86910217159599
H         0.07923610038281      -0.38781468918431      -0.04332561383084
H         2.16705530602801       2.56414323683194       0.99198536639088
H         3.81236364272209       1.87138379199157       0.97017516021912
H         4.54375608016706       3.63153704585248      -0.65271443869164
H         2.90598755854590       4.34365768869170      -0.63104346779035
H         3.90786367448384       4.35052744554758       0.84195458613309
P         6.71852143329435      -0.88287649565750      -1.89066833931246
F         6.48916640257514      -2.18426376467479      -2.89875091023341
F         5.01463521837766      -0.70635972916446      -1.79061370829479
F         8.36822803392644      -0.99042557175008      -1.93608279638807
C         6.69770009647524      -2.18113670711996      -0.38765037379830
C         6.77662093484080       0.19032817704364      -3.56395917383912
C         6.76956522415224       0.70979877081415      -0.65595803766783
C         6.98041824173833      -3.68584697310622      -0.71913899673135
C         5.44459133834238       0.47944863971271      -4.31823874880693
C         8.10132094250759       1.37577491427533      -0.19704908373691
F         5.47277083533751      -2.22113223722007       0.27541065754444
F         7.63884117539473      -1.83326907131010       0.54868901142498
F         7.55120220722945      -0.49470762243499      -4.47151682051359
F         7.37502667181108       1.42062388362480      -3.40781070807305
F         6.10057836299886       0.39973314213457       0.52226742569100
F         6.03153877389644       1.73964595067562      -1.22203608111309
F         7.14930160014433      -4.36846278055154       0.45250153962738
F         8.09562884851167      -3.85393282039349      -1.45471693228883
F         5.92998673412547      -4.25896565431626      -1.36012900009689
F         5.70840930885350       1.08313917327002      -5.50652860181415
F         4.74285341153601      -0.65014722125322      -4.57460919687721
F         4.63206429736837       1.32661088069202      -3.61894095495381
F         8.85385922573295       0.54058558360317       0.54644374081079
F         7.79882078152819       2.46294967667095       0.58146036613061
F         8.83502942327283       1.81231744475712      -1.23911508139679
