43
C11H24F6NP optimized with DFTB in AMS.
N        -0.64470557224499      -0.18367725429080       0.44151966239790
C        -0.96996558297721      -1.47615744917129      -0.27106592552077
C        -1.66774728262846      -0.04700768473577       1.55373591471041
C         0.73423761390791      -0.24928489120139       1.03822131964733
C        -2.41764054017789      -1.78177270686536       0.07610506818384
C        -2.51934627350770      -1.31017773774708       1.52187223049080
C        -0.78253439201438       0.94773332631788      -0.53103634442744
C         1.85159462890782      -0.42914356869118       0.01553731422441
C        -0.42735053000190       2.31987876078953       0.04293614214409
C         3.17238182277470      -0.66054917742507       0.76331559314168
C        -0.81978308925274       3.40953620208786      -0.95414841278067
C         4.32756719498240      -0.86837675619088      -0.21142050670268
H        -0.78905578854920      -1.36134494126131      -1.33954040729030
H        -0.31795718955284      -2.25221356612449       0.12987417880473
H        -1.14741818834880       0.07529744239025       2.50221537814553
H        -2.27379857603089       0.83876230711595       1.35732978689028
H         0.72968758641281      -1.09320988631119       1.72718914354331
H         0.88595338836194       0.66538042288193       1.61417671999480
H        -3.10285302406589      -1.22580111900227      -0.57040943977570
H        -2.62039849831537      -2.84822244268310      -0.02375887751404
H        -2.10450499932861      -2.06203687963372       2.19582566493227
H        -3.54608312769858      -1.09338840863135       1.81804221809872
H        -0.13699096349237       0.73036123546338      -1.38532476458757
H        -1.82060416736310       0.93995602095786      -0.87534405867282
H         1.64453800321302      -1.29149223628386      -0.62391353555123
H         1.94322127123450       0.45420340769206      -0.62439587297937
H        -0.94901185035080       2.48899410513227       0.98809039117415
H         0.64683710277738       2.38066655901601       0.23343608102944
H         3.38071111580053       0.20284546000336       1.40330243914560
H         3.06969724064026      -1.53825338937160       1.40736066559521
H        -0.30367136108111       3.26367350710712      -1.90350576703830
H        -1.89499673242860       3.39593107167842      -1.13508913808141
H        -0.54606784786709       4.38566899244721      -0.55575477975089
H         5.25152416710176      -1.03379364890214       0.34212690399427
H         4.14242489151111      -1.73697440363778      -0.84471153199560
H         4.45657854043810       0.00694156675609      -0.85037760245090
P         0.36728223512345      -3.04765270909501       3.60739232284305
F        -0.23252972363686      -1.46910832602780       3.63650341540110
F         1.83162449269362      -2.42536745320729       3.13193739981033
F         0.78253784525544      -2.91845297313946       5.16968233641519
F         0.94714594469355      -4.56084720914933       3.50820194642150
F        -1.13046568808829      -3.58947410432556       3.98903357371270
F        -0.06499565252657      -3.11374588573111       1.97175919922704
