48
C12H26F2N2O4S2 optimized with ADF in AMS.
N        -1.27465554199767       0.41885379379710      -0.18258950452241
C        -2.14915643796633       0.04172180106784      -1.37785870758520
C        -2.06367849083518       1.31893202844183       0.75091237147937
C        -0.80963217677112      -0.82712528709805       0.57440049084108
C        -0.09572335726410       1.19953155393708      -0.72763558911117
C        -3.51025344970667      -0.50196157954659      -0.98812805563260
C        -3.40667448912478       0.73915434405820       1.16176888856517
C        -4.26621516216981       0.44520582568523      -0.06437146566885
C         0.25939062629546      -1.65877496541508      -0.11139367971904
C         0.92227218359051       1.67089055740311       0.29857963447353
C         0.66518546588521      -2.82455486467677       0.80021787165246
C         2.09126833346701       2.34840908661560      -0.41807962845909
C         1.80422329158170      -3.63464272437307       0.18867340838349
H        -1.59057326098655      -0.70275110149451      -1.96093604247076
H        -2.24941289336390       0.97058498391534      -1.96365809016203
H        -2.21280302944275       2.26293272627053       0.20003391662187
H        -1.42362783562983       1.51573519248016       1.62101766155143
H        -1.70040275259062      -1.44628418199270       0.73584075628220
H        -0.45605161904905      -0.46493681073913       1.55230705820472
H        -0.52897140137595       2.06304620552496      -1.25711017465799
H         0.37758822995184       0.55183458357664      -1.47937609970169
H        -3.40070925772689      -1.49007791103432      -0.52017754401680
H        -4.05565807813910      -0.68269788583539      -1.92873175421346
H        -3.88759709933699       1.47749163920132       1.82437407857411
H        -3.26580534346593      -0.17688632743440       1.75965175994221
H        -4.49892636939474       1.39229518513872      -0.58668382137199
H        -5.22438491313452      -0.00424987018564       0.23839906703567
H         1.15986766859512      -1.05810619083933      -0.32458060407998
H        -0.11622175599417      -2.07048948614218      -1.06256245691773
H         0.46311016781429       2.38568545679396       1.00030613567001
H         1.29793977655981       0.82201616927295       0.89122611431639
H        -0.20782671876188      -3.47559818497740       0.96759723730530
H         0.97042612218263      -2.42898797326815       1.78728848788301
H         2.82727502054255       2.72001502714198       0.30926514689373
H         2.60484144323518       1.64456232319361      -1.09005172160340
H         1.74880122641685       3.20502921484798      -1.01880538195823
H         2.70880355968195      -3.01591836305594       0.06562358674773
H         1.50820095125645      -4.03141521809120      -0.79347132465507
H         2.05804057531798      -4.49560072262588       0.82406742671242
N        -0.99253461656620      -4.91926316754743      -1.33899525555597
S        -0.86658839646754      -6.27277231181539      -0.44738664259192
S        -2.35570154749581      -4.13098320240233      -1.48728973471747
F        -1.87501806684787      -7.32643456543147      -1.20354138803852
F        -2.62018159747457      -3.46794641141694       0.06941284922897
O         0.46526049363336      -6.79258947243457      -0.67262988441492
O        -1.40126586308798      -6.14890014373751       0.89624338794964
O        -3.57334672418431      -4.88117804195262      -1.71724619939029
O        -2.08553409775510      -2.93141809570015      -2.27805182279792
