34
C10H22ClN optimized with ADF in AMS.
N        -0.11399742164607       0.08242751622161      -0.01261508469340
C        -1.01710845311813       0.76655030931893      -1.03186789346497
C        -0.66429222038986      -1.29520326983303       0.28355183483628
C         1.25449795315799      -0.03856766342081      -0.67135124876942
C        -2.46144410054091       0.83083480578940      -0.57884652017079
C        -2.11774064419750      -1.28277840086775       0.73568526781622
C        -0.02964484969308       0.86943296271249       1.28592983183655
C        -3.01270457174667      -0.56292661377610      -0.27346057375036
C         2.35612408018411      -0.60388542767335       0.20457348122083
C         0.58377851554459       2.24701056624432       1.17496526863824
C         3.64461014965395      -0.68716439567823      -0.61785271525936
H        -0.93160993354257       0.14609650235581      -1.93937472979501
H        -0.53786208234257       1.74190083315473      -1.28306916529350
H        -0.01127224753208      -1.75620809099605       1.03695930035704
H        -0.56322406732415      -1.86046328855665      -0.65655280336654
H         1.48958836752954       0.98168529432301      -1.06798259548678
H         1.08969616382306      -0.68835243210420      -1.54638340576775
H        -3.03190066748084       1.30660641375668      -1.39378154325751
H        -2.57390201852605       1.49526665227698       0.29503818551565
H        -2.20774040236096      -0.81768374912502       1.73153680158014
H        -2.42930350225831      -2.33380702888997       0.86037639551432
H        -1.05484650325405       0.93578552004580       1.66972103413482
H         0.53815577439987       0.22837063623372       1.97778221659793
H        -4.04612367707254      -0.50753440721470       0.10532438293287
H        -3.04388353453653      -1.14984734630943      -1.20973351661773
H         2.53369817344919       0.04720122780503       1.07598740995375
H         2.10356778908281      -1.60807976290103       0.58850404976839
H         0.56557660032445       2.69757625695794       2.18046415776723
H         1.61931041071452       2.22822150645502       0.81235096913131
H         0.04622287873779       2.90018023977196       0.47425621290088
H         4.47166027570044      -1.08075505941824      -0.00896885988079
H         3.51579193232641      -1.35000755948655      -1.48774556237646
H         3.92489516800597       0.30847844593681      -0.99239751674813
Cl        1.20877353042817       2.98641261909088      -2.01571401410395
