38
C10H20F3NO3S optimized with DFTB in AMS.
C         1.94053412897283       1.06241189906786       1.68442764648843
C         0.94586282900967       1.77468251337045       0.77464924780322
H         1.23892552578643      -0.52516011336407      -0.70268240673413
H         0.09375414165132      -1.39036054208551       0.35182012171404
H         2.70279605082560      -0.90690266330512       1.10137141355331
H         1.39687134760772      -0.95762123205181       2.29114655619867
H         1.73722191161291       1.28459599726973       2.73364973486549
H         2.95615324658873       1.39233793410004       1.45989309999539
H         0.42675409866753       2.59722263690876       1.26565377582327
H         1.42531735608208       2.14159885964160      -0.13439499697228
H        -1.72047444547396      -0.25653453843011       1.23671411236625
C        -1.09197040277802       0.60802590452579       1.43671292757725
H        -0.59373907470746       0.48583229700063       2.39525708917317
H        -1.68709573351548       1.51944708112003       1.45252504044854
C        -0.67897242871705       1.14863030859691      -0.93897993400989
H        -0.93640410897762       2.20552625270271      -0.81852376842513
H         0.10519926164605       1.06346559671302      -1.69548100905728
H        -2.72333031977566       0.50966438216859      -0.63749343177924
H        -2.81401069167057      -2.66709380604223      -2.72778744965651
C        -1.74181593751870      -1.07596088690769      -1.73717181988915
H        -0.84449928885913      -1.19574335580308      -2.35417622414241
H        -1.60805080783140      -1.66768279703844      -0.82597004841760
C        -2.95572744014556      -1.61159617475304      -2.49580975955943
H        -3.09440783337796      -1.06503334235145      -3.42902159967668
N        -0.06168966105393       0.73338182666658       0.37062875970328
C         0.74497617595196      -0.52121942310190       0.27144454056854
C         1.76517073655183      -0.43800787925034       1.40404184603103
H        -3.85794834530660      -1.50488213622368      -1.89280351911616
C        -1.93285768622286       0.40258280994486      -1.38336525192584
H        -2.27071834346500       0.93469410554213      -2.27895734608271
S        -1.46981053302873       4.46419983476261       1.00177547144713
O        -1.49791330558664       5.85518996490598       1.35178338948163
O        -1.25825067401372       3.53357831833464       2.10779608279775
O        -0.68353643884979       4.12041609897407      -0.17942618853381
C        -3.19509410339499       4.03698837131817       0.46272894884476
F        -3.56795794168910       4.69650533392634      -0.62398185506184
F        -4.09344185179021       4.24193318870833       1.41410491846462
F        -3.22088423240449       2.71858692563861       0.16096715689431
