60
C18H39NO2 optimized with ADF in AMS.
N         0.33929371532371       0.06274268250695      -0.02549282772549
C         1.34363462352897      -0.87993498255656       0.63094301925169
C        -0.62302518491544       0.58754380176827       1.01590993407771
C        -0.38412435981869      -0.74065137330100      -1.11440231523643
C         1.05052012489331       1.23638918462978      -0.67678516900989
C         2.21429979568652      -0.27071994289705       1.71328601254239
C        -1.73012447892239       1.49375292209255       0.49718475442262
C        -1.41350903210513      -1.73079508978271      -0.60261740186757
C         2.19831582119309       0.87000110537200      -1.60144799918996
C         3.26934731959463      -1.29852086717243       2.14067018038017
C        -2.72307604879627       1.81864526755986       1.61748543869402
C        -1.89070185954046      -2.60575811206760      -1.76550986240747
C         2.71071857628892       2.11031811536622      -2.33666077468568
C         4.16030426677586      -0.78622069109192       3.26855769613528
C        -3.84349589980022       2.74382171881296       1.14824512056706
C        -2.96530005429640      -3.59385026006179      -1.32223655104271
C         3.86055819758998       1.76666532243345      -3.28204034657553
H         1.92729227572087      -1.29974478485221      -0.21010777724043
H         0.75709031685369      -1.72467176913576       1.01627409606982
H        -0.01501597181479       1.12183567866169       1.76005982915913
H        -1.04916457357511      -0.30043499956391       1.50509517490906
H         0.42833404448058      -1.29312903169589      -1.63337826143972
H        -0.83976627029469      -0.00099243684739      -1.79034062433438
H         1.39664756223635       1.88535037624280       0.14293785428074
H         0.27604826145155       1.78370601516298      -1.23375828071363
H         1.62466707275352       0.02283916803615       2.59984228001524
H         2.73324559760685       0.63416482379020       1.35026139818721
H        -2.27071563059962       1.00819429779427      -0.33187214645790
H        -1.31196201444880       2.43741316043911       0.10872185137202
H        -2.28074272730499      -1.22811576722607      -0.13672350827376
H        -0.94329945422842      -2.40657802264834       0.12928924670775
H         1.89222929844534       0.09795026483088      -2.32343345683991
H         3.02541861920939       0.42184085379542      -1.02861005878154
H         3.88141708064857      -1.56508852998818       1.26168884913744
H         2.76226546923988      -2.22856897684390       2.45213644762086
H        -2.18421881411299       2.28609422402448       2.46169272915498
H        -3.15528754077828       0.87777549566705       2.00338094396575
H        -1.01287564088692      -3.15731807641050      -2.13934458817146
H        -2.27400626644284      -1.97149287328253      -2.58665063128503
H         3.04400152306290       2.86987756201376      -1.60447835810043
H         1.88440276312264       2.56814746579150      -2.91106029518696
H         3.56784116579381      -0.55255334298776       4.16820077385699
H         4.69425007675568       0.13048281723687       2.96965529030176
H         4.91614468461913      -1.53497375575901       3.55055922228572
H        -4.41380591584488       2.28589805191978       0.32439188030450
H        -3.43931500223919       3.70271105130414       0.78609807800546
H        -4.54950094134495       2.96335000998228       1.96341869611014
H        -3.85612708809944      -3.07272922154809      -0.93444742146665
H        -2.57670217292592      -4.24958167961511      -0.52697858225670
H        -3.28662223373053      -4.23575516432313      -2.15663364436540
H         3.53682855209136       1.03114310317268      -4.03495284890044
H         4.70242193415157       1.32117695501935      -2.72932429218194
H         4.23087681723503       2.65907338839434      -3.80903626089228
C         2.57492829370682      -4.59397303803380      -2.27741227350982
C         1.83107594390529      -3.43733549999831      -1.59078966743246
O         0.98453506864105      -3.74381634698829      -0.70645631034790
O         2.13607236197982      -2.25301524343055      -1.97610939704127
H         3.17338410548333      -5.13953294092897      -1.53138927938791
H         1.84745567719200      -5.31248883947776      -2.68526415454818
H         3.23330380910535      -4.23626030630524      -3.08124254581870
