55
C15H32F6NP optimized with ADF in AMS.
N        -1.34266997876903       0.69627878542583      -0.20713189663812
C        -1.72721003133513       1.80191942197331       0.75575236391827
C        -2.46703268177372       0.52033682688696      -1.22519038371232
C        -0.10256759378403       1.11756704906712      -0.99003370096034
C        -1.09207803930822      -0.58662490910286       0.56510665577721
C        -3.07979198741101       1.58995392692930       1.42183599390765
C        -3.81785994193787       0.27753322437554      -0.57935193824169
C        -4.18663054777800       1.40289601099674       0.38519481383596
C         1.16933438002292       1.29307353208791      -0.17981596936375
C        -0.61579885312361      -1.75918253355756      -0.27379072671630
C         2.31603533844356       1.67949213263103      -1.12311992082448
C        -0.43433812281650      -3.00577953161190       0.59375272363645
C         3.64501333504470       1.86829415661968      -0.39351542037972
C         0.03612495177566      -4.20972442427963      -0.22322637093143
C         4.78430277843734       2.24230968340488      -1.33895435219594
C         0.22246032490903      -5.46012558527453       0.63049841490419
H        -1.74347002111257       2.72178993140769       0.14944055724962
H        -0.91967230168820       1.88628456442117       1.49592899149235
H        -2.16819319468666      -0.27682381832289      -1.91454746647704
H        -2.47208086285977       1.44690157669681      -1.81835792747790
H        -0.38237212651860       2.05535280509368      -1.49223513738273
H         0.02037638007044       0.37233688455759      -1.78686898259000
H        -2.03362790614458      -0.83819222276363       1.06944134647889
H        -0.35957616519038      -0.33372508511241       1.34716855614806
H        -3.27344222157980       2.47697626842812       2.04886103842900
H        -3.04531809400370       0.72945422515547       2.11181041195068
H        -3.84582574870949      -0.69875010993444      -0.06437577760323
H        -4.54739187734185       0.20679365624171      -1.40287265173117
H        -4.31351207615972       2.34180746250077      -0.18523442508706
H        -5.14732690550281       1.19521691429793       0.88302382872413
H         1.05854549152392       2.07689310834379       0.58972375775703
H         1.44265893418344       0.35903369180471       0.34035519316963
H        -1.33055665846994      -1.97826766570353      -1.08129417786113
H         0.33641141471199      -1.52293112462097      -0.77318677214075
H         2.05489181305408       2.61085455806728      -1.65835852745512
H         2.42364410541102       0.90238097374304      -1.90100014072090
H         0.29735174984258      -2.80304744042775       1.39884446217621
H        -1.38795177994984      -3.25844824125262       1.09534447421908
H         3.90329099282573       0.93705626875550       0.14391091481949
H         3.53382622182022       2.65189436967170       0.37883451999781
H         0.98482746818221      -3.95672357321057      -0.72951479315931
H        -0.69273635160948      -4.40955122087928      -1.02854686278985
H         5.72926388095204       2.36951151320157      -0.78901735738978
H         4.93668110833304       1.46336277970885      -2.10241176983569
H         4.56844020141412       3.18554077520889      -1.86590791030918
H         0.56161324685245      -6.30899787085404       0.01809352797511
H         0.97116668034284      -5.29344095484586       1.42177194048424
H        -0.72151534450035      -5.75194107137276       1.11875595363633
P        -0.99366623374368      -0.28357611042540      -4.68293576727580
F        -0.47066270988881      -1.02472211648553      -3.24684565316334
F         0.57876214196609       0.00071330375351      -5.07379942186010
F        -0.95677175952955      -1.74119529402155      -5.42722290253140
F        -1.52180215753786       0.45695081914562      -6.04099707856796
F        -2.56288909011627      -0.55855222625006      -4.18673271380050
F        -1.03325170153837       1.17898322440607      -3.85984829951339
