46
C12H28BF4N optimized with DFTB in AMS.
N        -0.25499113399771       0.06223476215764       0.30159559627282
C        -1.32154243711633       0.71105587045178       1.14986997160015
C        -0.83902277382846      -0.62810954631098      -0.89610393742015
C         0.45446341487636      -0.97052088647668       1.13951792916865
C         0.69078833865715       1.13903522426326      -0.16315917702863
C        -2.44979663679444      -0.20900215618424       1.60792768872526
C        -1.69232936331931       0.24934533213385      -1.81178195238118
C         1.69189195877227      -1.60871484748866       0.51463128515141
C         1.51265072234544       1.81070193202290       0.93739837855758
C        -3.32279384950901       0.55931326129468       2.60063733444641
C        -2.24228759582996      -0.60246216028193      -2.95597208621855
C         2.39158543221981      -2.43272327806176       1.59754345719757
C         2.44134151470542       2.84451263985909       0.30380766509218
H        -1.72570421924751       1.54918094012636       0.57688293199129
H        -0.81649666436237       1.10506698054829       2.03328578326698
H        -1.43833893943220      -1.46235619074786      -0.52363593115255
H        -0.00181025774474      -1.03775742409834      -1.46679214683069
H        -0.27540174396481      -1.74816524520527       1.36958614923919
H         0.73039211507820      -0.48144485491509       2.07321114958347
H         0.08307856139790       1.89447919828281      -0.66767602188270
H         1.35370351662931       0.68747277709853      -0.90625330096484
H        -3.05625578389333      -0.54624402615399       0.76154263295320
H        -2.04167593004864      -1.08270039510031       2.11878287115962
H        -2.52720617026000       0.68617473927402      -1.25961412021036
H        -1.09501699061322       1.06418279679855      -2.22830884328903
H         1.42089729451330      -2.25496745265915      -0.32618868662197
H         2.38644034609624      -0.84911354031302       0.14916615062032
H         0.85916743113148       2.30695369069474       1.65643814318592
H         2.10927540861785       1.07921636333712       1.48463231847935
H        -4.14984804057713      -0.07077080851515       2.92586022831599
H        -2.72838460307750       0.83738348647425       3.47063592339658
H        -3.72811984465564       1.46297859292501       2.14330506543266
H        -2.85295481780537       0.01618098648615      -3.61246244018747
H        -1.42820112128329      -1.03265409269180      -3.54014813856469
H        -2.85966127563575      -1.41293484267862      -2.56754096525835
H         3.30230331276714      -2.87605080437243       1.19619593490462
H         2.64995478613669      -1.79278900727554       2.44174366625511
H         1.73894957100805      -3.23071366145778       1.95212576054329
H         3.02071249076326       3.33414754875612       1.08533690136899
H         3.13161104445729       2.36990739756238      -0.39563121266441
H         1.86908417436978       3.60355526479120      -0.23193208726029
B         0.46105727678382       0.63467388848550       4.19967204569701
F         1.68622623567961       0.25268098202784       3.59389705146188
F        -0.51559527504763      -0.32218708438263       3.80509084730024
F         0.07137279409316       1.87080780701221       3.62491661153081
F         0.56828563294484       0.71460081080692       5.55516727883735
