76
C22H34F18NP optimized with DFTB in AMS.
N         2.26133472732743       0.85544743198223       1.53207067795123
C         1.55119686276173       2.17264897040787       1.47736561013040
C         3.52049099816035       1.17321523156594       2.28562663369549
C         1.46006760820272      -0.16476524494070       2.28506417911510
C         2.59283165441048       0.40251311235953       0.13355739177953
C         2.64745967462572       3.21477864838003       1.27390929297822
C         3.92236488646515       2.57812438632421       1.84874075337307
C         0.12182752913032      -0.51057970391056       1.64028229539020
C         3.18511784799811      -1.00291106901700       0.05920402353832
C        -0.55373201849611      -1.61567949487319       2.46278218473055
C         3.85250047284147      -1.22873482496783      -1.30188220458170
C        -1.89482360177291      -2.02130993737190       1.84576553953798
C         4.59143419044679      -2.57101139603047      -1.31065516491484
C        -2.55913021270318      -3.13647770387591       2.65964606807989
C         5.23237521184290      -2.84728190069906      -2.67356171444774
C        -3.89588504380078      -3.55052066441747       2.04762239586855
C         6.06623802512460      -4.12710913459659      -2.63773303124165
H         0.80903925658136       2.16198183525931       0.67920287843239
H         1.04915541598701       2.31562253122324       2.43703608533849
H         3.29028352803737       1.13828295968726       3.35134364944618
H         4.27988145595323       0.42752075430252       2.06710519276916
H         2.07936082795871      -1.05637000072895       2.37081168118874
H         1.29794862671243       0.23933924400093       3.28747077379219
H         1.67521514266644       0.46322143789545      -0.45664383302229
H         3.30367066871288       1.12971478833540      -0.26552883366147
H         2.77080781553602       3.44327614839950       0.21328203128929
H         2.38752941763800       4.13916304026726       1.79202371377663
H         4.29944270574660       3.13978291738541       2.70463619160826
H         4.71098094734884       2.54142153232253       1.09496607415876
H        -0.52429415416103       0.37165823051519       1.60418838754279
H         0.26793706001374      -0.86632501188530       0.61735093617658
H         3.93327454804598      -1.13772346577034       0.83909208783250
H         2.40509100712796      -1.75297667624189       0.20906312502955
H         0.10880066015897      -2.48564446139617       2.50555853636536
H        -0.71016137772790      -1.26209545722924       3.48712357250860
H         4.56605932900765      -0.42049188065398      -1.49658459360555
H         3.09559873289974      -1.20746866579250      -2.09370497604557
H        -2.55762172967566      -1.14968355053518       1.80618365320402
H        -1.73271103018900      -2.36458482159154       0.81815469816457
H         5.36592295629130      -2.55589184410717      -0.53819517325209
H         3.88994494620056      -3.37475321822343      -1.06459835170620
H        -2.71908161608374      -2.79068308494343       3.68631684268399
H        -1.89152980009607      -4.00335346107210       2.69855738691707
H         4.44899707436071      -2.93862854990669      -3.43420552468051
H         5.87360677563689      -2.00430391092122      -2.95331291896754
H        -4.58265568943710      -2.70331706257220       2.01835337074259
H        -4.34795391085067      -4.34385193152999       2.64286199977068
H        -3.75352038157647      -3.91743195465489       1.03020944466525
H         5.45436892509788      -4.97368334222216      -2.32411891674917
H         6.47146674024663      -4.33729975641559      -3.62783207779714
H         6.89637155023902      -4.01695291365671      -1.93920608782500
P         6.23935092381201      -2.54357427742026       4.42319340423912
F         7.56136325600950      -2.31600269339204       5.39013088486581
F         7.09436466807502      -3.53700595798366       3.38415987201876
F         5.30072382879123      -1.54839859334196       5.40558600445129
C         5.86053565011665      -4.09732710094213       5.54404748959282
C         6.84366379058013      -0.90499060580815       3.41697140102794
C         4.61753890022283      -2.71408904039052       3.17326434643241
C         5.22863400063236      -3.85591135488585       6.93958404645957
C         7.18306413505120      -0.89515213383409       1.88703263475299
C         3.43679481160516      -3.72237027915795       3.14448054805150
F         7.00497310882621      -4.76614768645497       5.74366538142427
F         5.02931228029256      -4.93567924851611       4.88988090627646
F         7.94649253631543      -0.43024823806804       4.01132306964496
F         5.90866347573037       0.07502105443858       3.54516391680051
F         5.11477095721371      -2.76373877172757       1.91392943106711
F         3.96900730210412      -1.50879948371802       3.25620793475025
F         5.14972360056464      -5.00143420394989       7.61972936282608
F         3.99028187244335      -3.37390331348599       6.81790164406608
F         5.94308567440220      -3.00072668648790       7.66114127191872
F         8.11207875744746       0.03047293450019       1.63911691357022
F         7.62014708016207      -2.04202772806962       1.39760903782086
F         6.09617337593569      -0.53221250329791       1.17253464716480
F         3.78707758698322      -4.92683443227259       2.72993242698442
F         2.51751850641582      -3.25873446505107       2.25755334809459
F         2.81269314629402      -3.81374858254497       4.31163238272495
