42
C10H22F2N2O4S2 optimized with ADF in AMS.
N         0.22067700206606       0.22619819663014       0.27205497113724
C        -0.78531207704025       1.14527657628251      -0.41443343029894
C        -0.47830817354542      -1.07486956107714       0.63658656392624
C         1.31468732641849      -0.05618801486134      -0.73584778062038
C        -2.05887247643940       1.35663967439341       0.38086664972962
C        -1.73827102206272      -0.87170047709583       1.45998860894969
C         0.79179097559272       0.85680441757692       1.53736565586736
C        -2.73165603019856       0.03367280464050       0.73548248457668
C         2.46543204014066      -0.91894283537922      -0.24460444787718
C         1.65231615705750       2.07995089086033       1.31304868063663
C         3.44834595023446      -1.16596956486625      -1.38967006796452
H        -1.00028964153088       0.65820055712392      -1.38042829181094
H        -0.26638013381750       2.09441686075112      -0.60632459108469
H         0.25686447723585      -1.68766303361638       1.17463780086001
H        -0.71372284659022      -1.56204794373948      -0.32481054677206
H         1.68352856360993       0.92548478429880      -1.07022378401250
H         0.81749551039030      -0.53591101819074      -1.59425946491751
H        -2.72001028653301       1.98774917951262      -0.23671018463791
H        -1.84146508381238       1.93384309582031       1.29205207669027
H        -1.49816730180687      -0.46000728294368       2.45368107836897
H        -2.16881197980331      -1.87243649695138       1.63394936983871
H        -0.05717597709525       1.13884755851889       2.16927153378845
H         1.34442279954252       0.05306779056435       2.04496018675680
H        -3.60505858440911       0.22046320466855       1.37876272374813
H        -3.09305664960979      -0.46674691486400      -0.18316747138413
H         2.98850857165899      -0.42446199108912       0.58898566854971
H         2.09362902066974      -1.88681794234871       0.12773521605300
H         1.91998979842898       2.45896299505931       2.31149831872742
H         2.58409551905979       1.87436870186797       0.76597579325686
H         1.09874292064700       2.89919788594137       0.83441338021516
H         4.29128370652879      -1.78265203497329      -1.04738890052368
H         2.96191386662486      -1.69237718243033      -2.22573913372048
H         3.85763877330098      -0.21918188122100      -1.77531025058869
N        -0.97561005579303       2.75191371065833       3.20398651776067
S        -1.05711225136312       4.33726350832412       2.92003467047966
S        -1.79487893373499       2.02759551368967       4.37919737083853
F         0.12034769757776       4.91699365844292       3.92097751625955
F        -3.30821336868845       1.87239852115544       3.69927310878755
O        -0.50734125203615       4.54320995696181       1.58790294008289
O        -2.26887039354870       5.00625630334744       3.33862102077151
O        -2.01934297959693       2.76831509799099       5.59938091310131
O        -1.31219783682940       0.65197747586617       4.41044654025498
