44
C14H26N2O2 optimized with DFTB in AMS.
N        -0.09631405824061       2.26151407250821      -0.49388337959673
N        -2.07007036992283       1.47091357489574      -0.29467462555072
C         1.25168941893155       2.46003270106713      -1.00706847796880
C         2.20697488948755       1.41217990801817      -0.42554881417422
C        -3.27005559370598       0.67851920070373      -0.53370578457621
C         1.80806225491208      -0.00933098440557      -0.83225363698606
C        -3.32027358871367      -0.51639511224688       0.42161711217846
C        -1.00159928159886       1.47935092620535      -1.09400184606289
C        -0.58544709376472       2.74073795313519       0.69459043011871
C        -1.84115426963375       2.24057923795483       0.81890946187894
C         2.83008635925795      -1.04259591864741      -0.35230953710144
C        -2.13395996913554      -1.46263417310986       0.20988241758611
C         2.39189721865483      -2.45666498351859      -0.73041135592959
C        -2.22917370090901      -2.68764947502335       1.11542246842887
H         1.57988421163859       3.46821647533221      -0.73975324095202
H         1.20653334270383       2.36942225489091      -2.09586868157981
H         3.21148451297147       1.63708546045519      -0.79654922325323
H         2.22120285517285       1.50067995398056       0.66580159720869
H        -4.14380904431547       1.32111924480838      -0.39119948954079
H        -3.22626737399657       0.33307304057151      -1.57057481712903
H         1.70998432887558      -0.06331955015949      -1.92091588039641
H         0.82992731306685      -0.24586617705674      -0.40161304747261
H        -4.25599375832006      -1.05110486484571       0.23286119583675
H        -3.33813795163128      -0.16058936277722       1.45774729260476
H        -0.75121434447905       0.91384025438316      -2.14208325849277
H        -0.01593419985392       3.39196000126559       1.33472253154403
H        -2.58014737407224       2.37250220127721       1.59003756068199
H         2.93997864103388      -0.97265668817837       0.73579878781258
H         3.80613989834460      -0.82967200753925      -0.80160755729821
H        -2.10929530368763      -1.77707477427406      -0.83723786719975
H        -1.20196700571280      -0.92766776742465       0.42138904370820
H         2.28572924472064      -2.54571936328036      -1.81210800516942
H         1.43278162425740      -2.69445277427018      -0.26819787646739
H         3.13148228326738      -3.18244635627746      -0.39131449678060
H        -2.23676481861537      -2.39238072207693       2.16632262253329
H        -1.37327593107378      -3.34117044004721       0.94488394870941
H        -3.14090525714477      -3.24901414380869       0.90626065996981
C        -0.68006990542433      -1.51136297682987      -4.75067043858917
C        -1.06292491717278      -0.63441781119418      -3.55210214994074
O        -0.24590064847498       0.30457777335320      -3.28477039643173
O        -2.09726503811386      -0.88028818813072      -2.92925028489638
H        -0.53944203128795      -0.88205058920033      -5.62797499467835
H         0.26117529343352      -2.01451678335017      -4.53194714298166
H        -1.45647317232872      -2.24884778343303      -4.94138016400390
