32
C10H19ClN2 optimized with DFTB in AMS.
N         1.95211842385276      -0.77411537962199       0.38277664176313
N         3.13934921114057       1.03273062094052       0.48370631615940
C        -0.30193114305212      -1.77022320713491       0.24563951228687
C        -0.98357228932650      -0.49079051542145      -0.24799707621654
C         1.16264202007258      -1.85535061125505      -0.18974625515615
C        -2.46512488711053      -0.46618753289846       0.13999453743327
C        -3.14302371920169       0.81962011289492      -0.34363094688600
C         2.28836881444250       0.33780679194814      -0.29220380600247
C         2.74659638301634      -0.87161838638164       1.50616964657958
C        -4.62145475452769       0.84863020401800       0.03990537686766
C         3.49678924149738       0.25105228143393       1.56334831535767
C         3.89648470715404       2.16214039682333      -0.02477718485599
H        -0.35686883478644      -1.82016290978930       1.33791916656714
H        -0.82253599757225      -2.64340120355972      -0.15852050810115
H        -0.88885942985780      -0.42422439953717      -1.33712715705751
H        -0.48087948715591       0.38005203494235       0.18667605906109
H         1.26100808750097      -1.78740664480184      -1.27750165713472
H         1.59590966198734      -2.80130367182853       0.14539138954635
H        -2.97067636533736      -1.33344727458804      -0.29830991155794
H        -2.55734727881014      -0.54138992897684       1.22915119687918
H        -2.63572845099832       1.68561501074572       0.09557072260356
H        -3.04770168311075       0.89345985724482      -1.43223229290312
H         1.70135165520070       0.77138101114661      -1.08071739758165
H         2.69855172307497      -1.72327901758863       2.16160264931958
H         4.22555724082821       0.57873336864048       2.28344201486986
H        -4.73672286316365       0.79667034342988       1.12359676853626
H        -5.08168849975257       1.77125491078205      -0.31449241345325
H        -5.14860671019413       0.00386947832863      -0.40578522868186
H         4.47830672911822       1.81411806207441      -0.88384719587098
H         3.21177585364863       2.94961337226215      -0.34008952311462
H         4.55624004007529       2.53387411164419       0.75645426929509
Cl        3.68622057604737      -0.47452836981659      -2.01089503445174
