28
C10H15NO2 optimized with DFTB in AMS.
N         0.63504757153837      -0.13485190737035      -0.52303057128428
C         1.51764616530201      -1.21167953401795      -0.96812546890951
C         2.53817175939583      -1.59506245541920       0.11372283647031
C         3.59752100469746      -2.53456862117263      -0.45699652778035
C         0.97121769020647       1.20256211846320      -0.92566929208586
C        -0.24256207443806      -0.36520241352465       0.49855187529725
C        -0.09899618689007       2.18174281449439      -0.57115037988157
C        -1.07166034326656       0.59726451927745       0.96201790198691
C        -1.02158617018450       1.89815061952777       0.36128982637207
H         0.90483163266383      -2.08218786377112      -1.22883026746180
H         2.03623080234645      -0.87033682508094      -1.86778656811343
H         2.02246506740816      -2.08089595276118       0.94777034523049
H         3.01721126148029      -0.69195367215621       0.49986097003499
H         3.13537072520290      -3.44181808333834      -0.84918529289330
H         4.30711159800640      -2.81528936602820       0.32163638044803
H         4.14274863360653      -2.04472253333057      -1.26461359018059
H         1.21945067667228       1.21210111394567      -1.99682778915241
H        -0.28393885073817      -1.38793559836350       0.85770698967380
H        -0.03379960146640       3.14890757104122      -1.05307657388133
H        -1.78836755584011       0.38091629701759       1.74167992990039
H        -1.76672527148902       2.63337951051380       0.64471964145288
C         4.51110895826150       2.10916428031726      -0.06042724606623
C         3.36798504546427       1.54765409257176      -0.87638755040560
O         3.50165979982421       1.09150077930165      -1.98314720511536
O         2.21511752505007       1.63427666086715      -0.22627912936871
H         5.39468211939738       1.49179097400453      -0.20670645662471
H         4.72587130140977       3.11340684140411      -0.42465061026173
H         4.24637407637870       2.15832502578731       0.99249345649963
