48
C14H31NO2 optimized with ForceField in AMS.
N         0.00005027371836       0.00061624232081      -0.00004673185993
C        -0.84706605750801       0.64137068470191       1.06665656221151
C        -0.84722529632354      -0.64043634557990      -1.06651463265721
C         0.84747830315159      -1.06601117004487       0.64062374541755
C         0.84682264994788       1.06753613628740      -0.64097690477256
C        -1.91152764781889      -0.27071909235337       1.72807280731017
C        -1.91203264477873       0.27120532863393      -1.72785904695900
C         1.91201062375210      -1.72749414126237      -0.27134125203498
C         1.91126335512998       1.72954229809474       0.27053377681331
C        -2.69522720449639       0.50393117506992       2.78425067457484
C        -2.69594133812528      -0.50390439775822      -2.78365187137076
C         2.69580979802883      -2.78367102405944       0.50341612583920
C         2.69544616480516       2.78426029793296      -0.50562961014312
H        -1.35843636431100       1.54615009945587       0.66919471820405
H        -0.20326227942517       1.00872562114637       1.89458971725017
H        -1.35840492776869      -1.54520448970619      -0.66882191812813
H        -0.20363511393301      -1.00778177570608      -1.89461686450981
H         0.20391979429783      -1.89418139403609       1.00793487852663
H         1.35888565348273      -0.66848046204616       1.54528450199854
H         0.20291375551287       1.89553773122806      -1.00806673488456
H         1.35820558170856       0.66991297134584      -1.54564182540552
H        -2.63788837295623      -0.65455833978022       0.98384875606213
H        -1.43457524195074      -1.13177243799951       2.23797212281505
H        -2.63819569572130       0.65500939672357      -0.98345266603719
H        -1.43528036497577       1.13215142086836      -2.23809022887806
H         1.43512019496327      -2.23759504688358      -1.13231325464196
H         2.63825667094691      -0.98315761865869      -0.65511743094114
H         1.43441625148831       2.24065442507880       1.13103073622474
H         2.63737113375685       0.98522347700070       0.65478864257586
H        -3.44948586737041      -0.16168507264474       3.25407407511890
H        -2.00976445675874       0.87618859154988       3.57566786036796
H        -3.21951928478184       1.36540709533730       2.31875125256294
H        -3.45041040460011       0.16144524162491      -3.25348444555850
H        -2.01070998881097      -0.87638212557453      -3.57518203831760
H        -3.22006964934633      -1.36532946963766      -2.31784484194028
H         3.45073789724613      -3.25289879803916      -0.16186079069223
H         3.21940042261039      -2.31836155611117       1.36542236087336
H         2.01058750128594      -3.57564892825213       0.87497777963042
H         3.44855025339460       3.25602785487365       0.15996805589069
H         3.22051903563419       2.31734624888185      -1.36570475303421
H         2.01029346498537       3.57355091769490      -0.88218032488119
C         0.37423557854222       5.93393513457936       0.90865730161581
C         0.35277733750298       6.93549861001296      -0.20211370967079
O         1.39952968270676       7.37581405667100      -0.64917405733475
O        -0.71130401164688       7.32463583492400      -0.65589177088236
H         1.25920282879162       5.27118989414179       0.80921614614289
H         0.42512676560458       6.46385618288699       1.88277791374196
H        -0.54258846408800       5.30735167496624       0.88013741376717
