53
C15H17F18N2P optimized with ForceField in AMS.
N         1.00380207607748       0.31202705487064       0.46952650802768
N        -1.02224807879166       0.32977964932476      -0.44628492260345
C         2.25780303341203      -0.16852455916095       1.04716791787229
C        -2.27549696237513      -0.12963237523504      -1.04287435913712
C        -0.00640333308230      -0.43977227768530      -0.00914989503218
C         3.43773778974630       0.10551638459065       0.10769474124228
C        -3.45915429024148       0.11911467648648      -0.10091798773663
C         0.61396940834591       1.59562103031916       0.33289117084296
C        -0.64245285863583       1.60710139133413      -0.23785601889824
C         3.33394993918564      -0.69985185056775      -1.18682900340065
C        -3.35133197258872      -0.70618636167089       1.18066135670691
H         2.19199339132822      -1.25945490207063       1.25358223587143
H         2.43226770680565       0.34373845517408       2.01797355115079
H        -2.21219021491443      -1.21441750964360      -1.28041973123093
H        -2.44442709938571       0.41137367881699      -1.99886966658603
H        -0.00277672980758      -1.52269463546031      -0.03775856684809
H         3.48781770324658       1.18951557831468      -0.13249752508392
H         4.38016914154387      -0.17402056798617       0.62627492501682
H        -3.51827386054862       1.19848945775704       0.15686532550956
H        -4.39846250784844      -0.15902966739811      -0.62590176360112
H         1.19590738371412       2.45666787557108       0.63283998177734
H        -1.23367331999461       2.48027539988121      -0.48179864790829
H         2.44078041485349      -0.38793206365786      -1.76834882705860
H         3.26501598734456      -1.78576255763424      -0.96262551634569
H         4.23749652648921      -0.52338080353201      -1.80734291273296
H        -2.46139907454862      -0.39695776810463       1.76861938800357
H        -3.27398181584511      -1.78778098026623       0.93926794315880
H        -4.25694042224953      -0.54591845721251       1.80256027706522
P         1.17709103215146       8.82555292968072      -1.02629629672195
F         2.75614011628746       9.02625301862969      -1.68483188871320
F         1.22293262132845       8.67297275041708       0.69022118464838
F         0.87460453719740       9.29404747297581      -2.65437729045381
C         1.57469902031736      10.62843187731660      -0.43380493885571
C         1.98005043963730       7.06268061640853      -1.10313996587423
C        -0.70277009629258       8.42089136385572      -1.19667433978310
C         1.79640645421699      11.69941239965299      -1.53335332240618
C         1.18461048365548       5.89163893705156      -0.48505385077853
C        -1.68363015016007       9.60482310462866      -1.28438802232005
F         2.73385557159206      10.60435530440286       0.33255150423508
F         0.56450846997855      11.08907967777106       0.38874848911194
F         3.19947601014823       7.07756314272820      -0.43088542423765
F         2.21861313743929       6.73343558547645      -2.43027812961091
F        -1.09541522525871       7.68720941991135      -0.09172604398582
F        -0.90624699628097       7.63154014413551      -2.31941637440091
F         2.07969277597409      12.90995036749946      -0.92530124237047
F         0.67120443580716      11.87473976885308      -2.30918869655730
F         2.86367551062776      11.38339282444492      -2.35432219530967
F         1.98741733194642       4.76418768942647      -0.49025781090513
F         0.83339705128256       6.15328219647256       0.82607248810486
F         0.05626028740779       5.59004446560407      -1.22072023695485
F        -1.71779626539722      10.31077620404344      -0.09900700822559
F        -2.95586543865508       9.10732435648353      -1.50705619418580
F        -1.37991503358644      10.45061450357501      -2.32898031079115
