65
C19H25F18N2P optimized with DFTB in AMS.
N         1.88286624299423       2.46907972429830       0.24571712015301
N         1.09923045431708       1.79774372470921      -1.64329367324719
C         2.76923920731506       2.59262658123382       1.39786092608908
C         1.00408987995872       1.11911137060839      -2.93574040008081
C         2.46056243034992       1.50339438818277       2.43002779272273
C         1.11560248922337      -0.39585361098475      -2.76386081273182
C         2.68011221927742       0.09517863776899       1.87001267161945
C         0.05848533800159      -0.95495068827269      -1.80869184681607
C         2.13178682857875       1.70083962022881      -0.81120208454219
C         0.65953835674196       3.06223927082772       0.09274324080612
C         0.16680284445051       2.63928131460374      -1.10265135500247
C         2.44932800601147      -0.97624963864829       2.93984780731047
C         0.23228810595484      -2.46570875552875      -1.62278847080862
C         2.63428125406596      -2.37683808764389       2.35920765741829
C        -0.78491781037001      -3.02383978848807      -0.62960454586516
H         2.62183861467017       3.58479642876472       1.83049798170527
H         3.79704244575416       2.50482406519916       1.03736792587377
H         1.81843010861201       1.48553164508862      -3.56698967072238
H         0.04684281180963       1.39804840204384      -3.38240817220526
H         1.42748143161163       1.61302190703152       2.77473672683141
H         3.12254972376008       1.66791916790789       3.28483725734266
H         1.00457422715348      -0.84690619876395      -3.75344997765620
H         2.11413538874330      -0.64397301288948      -2.39642094005725
H         3.69985644623862       0.01376527743627       1.48130801752106
H         1.98924221060926      -0.07702187308843       1.03696565466115
H        -0.94292138464287      -0.74187655480691      -2.19888960576490
H         0.14849101499990      -0.45925358722114      -0.83494394804256
H         3.02602973448764       1.12833972889656      -0.97370748741582
H         0.25012078455621       3.73227050377266       0.82819011990837
H        -0.75537892712005       2.87137490813459      -1.60589418267320
H         1.43517529692475      -0.87709338190247       3.34203763151327
H         3.15361639949033      -0.82548074001378       3.76432560558497
H         0.11513556094031      -2.96708330979526      -2.58871371034617
H         1.24495594389573      -2.66999837675127      -1.25966268318236
H         3.64403685903484      -2.49639180564464       1.96541202083805
H         1.92344819157077      -2.55153285642187       1.55007029963080
H         2.47075888079771      -3.12635881875781       3.13335236144955
H        -1.80209950616587      -2.84407168289888      -0.98036942044157
H        -0.66533302637327      -2.55044339189214       0.34634307353409
H        -0.64177063374408      -4.09809393604460      -0.51392026893346
P         5.50691806554779       1.38058015525995      -3.03628407167305
F         6.26760128923291      -0.05897232315952      -2.67701329349707
F         3.99518187042689       0.63086133892312      -2.69425583040948
F         6.93696041049972       2.17735301035512      -3.36495022367182
C         5.76603768622098       1.74666767276617      -1.10463370533288
C         5.46730706229857       0.74572007522320      -4.89080461893025
C         4.40202059770531       3.02784554142418      -3.39461242413826
C         7.21151025386929       1.73965627295178      -0.52983383912590
C         4.35196892635127      -0.25612253357920      -5.29412943094829
C         5.07987314135063       4.39227990597653      -3.67072947399018
F         5.08043612343008       0.81335201362164      -0.39430203071023
F         5.26232018531814       2.93869343873362      -0.70675414535203
F         6.63050309652415       0.12159611916486      -5.13138027891445
F         5.40478374126772       1.78250593682039      -5.74486222996267
F         3.55144083809856       3.23563000899881      -2.35220151169930
F         3.58804783445013       2.76926986970365      -4.44155374240936
F         7.13336137412162       1.80865605361599       0.80807653133043
F         7.88895209032671       2.80203492585366      -0.94677042652825
F         7.89642156740903       0.64920949830145      -0.83477680403954
F         4.50093499467181      -0.64401746134032      -6.55895946862754
F         4.38182469483839      -1.34156543436823      -4.52545397934818
F         3.13136486389695       0.28489589461715      -5.18357015383927
F         4.15856519716757       5.35422389356190      -3.78786835728061
F         5.78902152922847       4.36315600977041      -4.79002687366175
F         5.88639151006210       4.72445351872516      -2.66504721011809
