60
C18H36F3NO2 optimized with DFTB in AMS.
N         0.34804596332367      -0.03573479987004       0.01217172060167
C         1.18070891716703      -1.08482404040116       0.72015886951998
C        -0.49634525226051       0.69287550755143       1.01843056412700
C        -0.49046881513746      -0.72089903463889      -1.02852265476111
C         1.25977951630036       0.97105409611794      -0.66110521702678
C         1.83012580161404      -0.64343057400396       2.02905739053630
C        -1.55627467361165       1.63322124306731       0.44415993239326
C        -1.61103758814478      -1.61690175107925      -0.49995525354875
C         1.93840151494580       0.49782860906667      -1.94254004724180
C         2.74360873852439      -1.77254330170240       2.53037368320877
C        -2.28291829390555       2.33188098747759       1.60114102097785
C        -2.34870135744887      -2.24704662163205      -1.68885765002823
C         2.93346478471657       1.57575974572442      -2.39822601751225
C         3.58653696697494      -1.30134704426102       3.71262140775445
C        -3.35994933507841       3.28042587456983       1.07965762721862
C        -3.48115211444029      -3.15441696062673      -1.21352410888654
C         3.80864118379437       1.05366165862833      -3.53413242160760
H         1.96224783639745      -1.38589538541552       0.01743342661995
H         0.52934842433518      -1.93946426758063       0.91306759312524
H         0.19324315841215       1.27282425191212       1.63513380691512
H        -0.97450226449946      -0.06129611442842       1.64825234005382
H         0.19433150366189      -1.32764025119728      -1.62431134692581
H        -0.91144394513076       0.05759598036308      -1.66941527514601
H         2.02786377410320       1.23260119695905       0.07144890942212
H         0.66036447936637       1.85743632245568      -0.87708843006305
H         1.07470638537648      -0.43338571085440       2.79265871830928
H         2.42869047157397       0.25631490560883       1.87314692786325
H        -2.28723219688259       1.08506948340622      -0.15467572168556
H        -1.09868277223775       2.39086791094945      -0.19653759290390
H        -2.32458991874051      -1.04615767048806       0.09864576589930
H        -1.20738605414454      -2.41368226497824       0.12943792235516
H         1.20708534975919       0.32948947462889      -2.73908144176577
H         2.48299508471814      -0.43164874786845      -1.76146234434573
H         3.40484562075000      -2.08944012221398       1.71963861969893
H         2.13110799744043      -2.63236679450095       2.82461660835574
H        -1.55817593872888       2.89399631437957       2.19870060145123
H        -2.74128054087564       1.57841023427082       2.25020386942163
H        -1.64110776968103      -2.82828593362869      -2.28870641059300
H        -2.75669249349850      -1.45448554763308      -2.32487253867731
H         3.56880858989212       1.86096636281613      -1.55525808175035
H         2.38390184606249       2.46528668329927      -2.72632985119727
H         2.94987750054652      -0.97095504768610       4.53521353126245
H         4.22705501923700      -0.47261572737774       3.40998373563779
H         4.21709148219410      -2.11766776809600       4.06450494939598
H        -4.10191409412728       2.73362357811824       0.49643414236913
H        -2.91741923992830       4.05009786974845       0.44641343484931
H        -3.86277123952409       3.76476709213201       1.91629951481551
H        -4.20595345286068      -2.58733933760929      -0.62809033199726
H        -3.08944744736977      -3.96243806888798      -0.59474697729428
H        -3.99147406160749      -3.58972410783007      -2.07228366894783
H         3.19891326538600       0.76073713368959      -4.39063542868055
H         4.38116847827256       0.18825990758549      -3.19934974665229
H         4.50491607915886       1.83031982896713      -3.85074519251945
C         4.58174100686838      -0.11612006191438       0.16465253409581
O         4.05698309515106      -1.11179671068905      -0.33910761082384
O         4.08902997177040       0.94899813868138       0.54419731061012
C         6.16707231704931      -0.22600442603741       0.38377182906855
F         6.83362522378145       0.73104181336371      -0.28705399886236
F         6.66796832951526      -1.40423947903671      -0.01429945663212
F         6.48605383662365      -0.08666334797064       1.68619105804345
