58
C16H22F18NP optimized with DFTB in AMS.
N        -0.81778595036496       0.60409289403627      -1.05016319579106
C        -1.10349440704844      -0.72044095044852      -1.69132898024423
C        -2.04655644388562       0.87510079602743      -0.23720877034157
C         0.38441682013138       0.55884517008655      -0.15383378819324
C        -2.59739888692339      -0.70639578707051      -2.00460219248453
C        -3.20784940140371       0.36212944176908      -1.08474949502770
C        -0.65627486776802       1.66912304500706      -2.07620644070988
C         1.69228931999101       0.21647414086133      -0.86440129645369
C         2.82809719975092       0.19968179994834       0.16636097844240
C         4.16846895613572      -0.14071400888039      -0.49270897575129
C         5.30638592234700      -0.11077940628547       0.52502922654681
H        -0.85581958544557      -1.49831580143616      -0.96572440847312
H        -0.48852859935054      -0.83890086540986      -2.58007069452035
H        -2.10291000309715       1.93999339611448      -0.01021323549394
H        -1.96230087097126       0.31001239598357       0.69399394529067
H         0.17646748798097      -0.18675443616786       0.61896157392645
H         0.45555692225207       1.54149570232258       0.32144445256489
H        -3.02771074661295      -1.69113616654314      -1.81654755153912
H        -2.76671614954407      -0.45620354364198      -3.05277279186571
H        -3.64790797617490       1.17186613074985      -1.66984047947598
H        -3.98546009750309      -0.05321660816433      -0.44185475552827
H         0.16449346382352       1.40768819590278      -2.73664062646935
H        -1.57022440383978       1.74686553125688      -2.65796283135535
H        -0.44906393776381       2.61287301823805      -1.57519740219869
H         1.61602546593560      -0.76090889263570      -1.34593490097874
H         1.91741751172965       0.95643021734875      -1.63533692636720
H         2.60242680017096      -0.53765921853763       0.94496422484210
H         2.89342425169506       1.18264882545134       0.64620244936515
H         4.37252556217856       0.57814918299648      -1.29175835894850
H         4.10732204406646      -1.13514189813759      -0.94392310326115
H         5.39856233877553       0.88149233669865       0.96893777670866
H         6.24692214338037      -0.36049191106005       0.03453810687119
H         5.12746401103088      -0.83341847608365       1.32261794464135
P         1.06587324809710       0.84026966233279      -6.05589889677205
F         0.22711347455172       1.99684192525188      -6.89743006254990
F         1.26071308753278      -0.12533808545172      -7.39691233642147
F         0.89369273631303       1.76832937756262      -4.62585210981697
C         2.65516239043371       1.85967306391891      -6.55539752276774
C        -0.73367589001992      -0.00263058578879      -5.73752301212429
C         1.96083151933110      -0.56120583539343      -4.88077004811748
C         2.88611482355749       3.23849047927787      -5.87931176602405
C        -1.01002575933036      -1.53721499116900      -5.74685774279268
C         3.38651326625915      -0.58236936580856      -4.26647362659542
F         2.60818916305461       2.08324927188552      -7.87639822672149
F         3.76183640731889       1.12687942748703      -6.31994802549060
F        -1.57854786371496       0.48237275525144      -6.65738838031749
F        -1.22746030547598       0.40187195935750      -4.52699315606324
F         1.80262715713874      -1.76511911089638      -5.45484395670300
F         1.16035909070012      -0.56346940643121      -3.76256736284714
F         3.91572421489648       3.86652491368704      -6.44808805903476
F         3.16831179779023       3.09636514742975      -4.58253380360411
F         1.81959209949617       4.02434590452695      -5.98531006236843
F        -2.33165512856294      -1.72941967758601      -5.85348913627820
F        -0.42623460685351      -2.17591170317915      -6.74498325165550
F        -0.64416813707148      -2.11161294899958      -4.59318576980804
F         4.31792239793380      -0.96776929613659      -5.12052594134774
F         3.40049552918238      -1.45341053824204      -3.24156747953543
F         3.71704847306326       0.60663205701657      -3.75942749836979
