23
C7H13ClN2 optimized with ForceField in AMS.
N         1.11749526395680       0.39665181801195      -0.35219715721526
N        -1.10633758044463       0.37721837846744      -0.36907879899223
C         0.01442463631772      -0.19649635130597      -0.84893117967387
C         2.50563071560644       0.02435595716536      -0.61411139524499
C        -2.48383610696065      -0.01838090794746      -0.65262321501841
C         0.68112866030840       1.38291476264025       0.45785770996461
C        -0.69940860029940       1.37099441163525       0.44724152445241
C         3.11332820548109      -0.64912478999942       0.61021647831989
C        -3.10267545430639      -0.69330378642940       0.56538304348432
H         0.02733580750161      -1.04068500868902      -1.52598642865974
H         2.55446383789223      -0.68055268298375      -1.47269339630155
H         3.09303947011568       0.93056887013706      -0.87607712546578
H        -3.08039843907654       0.87700748851296      -0.93075150761328
H        -2.50696098113887      -0.72955833202810      -1.50714156955001
H         1.31894624838802       2.05633709086629       1.01585224374582
H        -1.35709242461463       2.03337436502908       0.99531820401746
H         3.10874379628309       0.04809228691955       1.47452365661503
H         4.16173679366586      -0.94471240793868       0.39459049976805
H         2.53002313801483      -1.55843646387564       0.86871857508075
H        -2.51275112322192      -1.59438681468885       0.83724708501278
H        -4.14405738159558      -1.00228779974882       0.33501165044676
H        -3.12004959381677       0.00784832919462       1.42636463673898
Cl       -0.66703016345638      -3.61758178464469      -3.07398428491174
