33
C7H16F2N2O4S2 optimized with DFTB in AMS.
N        -0.46004787284947       0.17466566048327      -0.82721004375448
C        -0.65046846315399      -1.10331936015926      -1.58554880879539
C        -1.87112311593802       0.66417432988047      -0.65437114110100
C        -1.87809046712537      -1.75373849337002      -0.95680941123015
C        -2.69632502684241      -0.58942935694608      -0.37501013397493
C         0.14002346310351      -0.05954489537379       0.52836954748011
C         0.35849804566157       1.14812249895355      -1.59385239110631
C         1.58292662181610      -0.54281921920727       0.50831953477853
H         0.25073988394770      -1.71235963776989      -1.53063936779732
H        -0.84496485335482      -0.82972032920845      -2.62811260165248
H        -2.17794579372624       1.12712206864565      -1.59429857558095
H        -1.90460331532368       1.40534406929012       0.14436156422295
H        -1.59070191399499      -2.45980726550096      -0.17416201876043
H        -2.44107624308844      -2.29624950227540      -1.71738262998594
H        -3.66663952257141      -0.50299931828872      -0.86585938031276
H        -2.86199513993429      -0.72406132227577       0.69600885742805
H         0.07762957902738       0.88965010132678       1.06733918103135
H        -0.48920397751073      -0.79093794725559       1.03910317791224
H         1.30495089392326       0.68610941033352      -1.86418825619801
H        -0.17481512596563       1.43120579742978      -2.49621545368316
H         0.52893847707003       2.02871881297444      -0.97700400953636
H         1.87827551596051      -0.74599363775614       1.53742677533743
H         1.69569254328025      -1.46069806095234      -0.06572176003869
H         2.25398677925722       0.21301408491951       0.10452912644550
N        -1.91574260795343      -0.12377305505828      -4.35378735819676
S        -1.54909383294211       1.36502599920178      -4.76283530242590
S        -3.43271151349060      -0.42941012948267      -3.97167169082721
F        -1.91559926088034       2.24174914251443      -3.40812965189945
F        -4.27471543781320      -0.19546017325096      -5.31261777911681
O        -0.12171124861582       1.44274072880882      -4.80636452379925
O        -2.32270822389592       1.97416148881846      -5.78634170970697
O        -4.00753713502408       0.46695908106550      -3.01095745726601
O        -3.51995837545250      -1.83142992441445      -3.70709283428941
