61
C17H24F18NP optimized with DFTB in AMS.
N        -1.15829747398087      -0.03663662256525      -0.96271373428955
C        -1.19302132346783      -1.15531815931765      -1.96324962426402
C        -2.42458506709074      -0.24392671323118      -0.18992874250577
C         0.03368416175561      -0.15977777371689      -0.06273320029394
C        -2.65212706312729      -1.26944783075804      -2.38837412641903
C        -3.46181728372837      -0.67621979760405      -1.22530491661826
C        -1.18352610931100       1.28027972844518      -1.69017637615860
C         1.36486753669736       0.01450539299621      -0.79167431862245
C        -1.12810980328056       2.50829481557741      -0.79748382016181
C         2.52735010106842      -0.28446343441647       0.16117559684703
C         3.86947749969074      -0.09060279464359      -0.55277118757574
C         5.04114687685530      -0.40526930004859       0.37432622422701
H        -0.52668129711394      -0.92980006911508      -2.79063832805053
H        -0.85602877267380      -2.06202878860109      -1.45585987156594
H        -2.24012692086815      -1.04052795721437       0.53477805510955
H        -2.69047573327838       0.66849275736102       0.34222713082412
H        -0.07505344426217       0.58356571708887       0.73073051930367
H        -0.01671954574947      -1.15397270839819       0.39036559078580
H        -2.82531415176402      -0.71355017018974      -3.31097675341988
H        -2.90766701670988      -2.31433555225671      -2.56881870883005
H        -4.14077575658244      -1.40998514184848      -0.78784822964094
H        -4.05427035400231       0.17775137103111      -1.55907652379743
H        -2.09375756057148       1.29429451171775      -2.28978855309504
H        -0.33452409491213       1.28167944071702      -2.37179287145764
H         1.46320609020684       1.03624651519105      -1.16465531439234
H         1.41658491048241      -0.66279009810729      -1.64668650588107
H        -1.95425819488536       2.54323194513358      -0.08862005029366
H        -0.18804051281800       2.57356781110301      -0.25252535490150
H        -1.20131571163820       3.37759095014770      -1.45056576399381
H         2.44676094667495      -1.31516079080297       0.52353250191179
H         2.46987107466445       0.38161680127160       1.02914946806071
H         3.90983584623125      -0.74382484875736      -1.42970103138342
H         3.94637250469991       0.94335754008762      -0.90272906807601
H         5.98198468250928      -0.25725188995685      -0.15531962367638
H         5.02660918090326       0.24927782323645       1.24705705243663
H         4.99327644831529      -1.44042669394052       0.71529808172443
P        -0.36859608528359       0.49360202541182      -5.96178982774949
F        -1.89069539959074       0.48040676721722      -6.63025330830893
F         0.38547141701673       0.47540507991734      -7.43890568137205
F        -1.08657034386634       0.54321466631719      -4.38469349642651
C        -0.54640383584466       2.44332745270899      -6.08382742891911
C        -0.50005855101466      -1.50531093149967      -5.97076609859683
C         1.42546161204203       0.41452770001858      -4.99337612338041
C        -1.57442375219616       3.14992643940943      -5.15807140150337
C         0.68692018914923      -2.43732891090714      -6.37108403728104
C         2.19100241200204       1.53440415023437      -4.23548765975805
F        -0.89684977883918       2.75108220356838      -7.34042406758496
F         0.63829171847022       3.04207310427581      -5.84866432514821
F        -1.48041313146452      -1.83831096651981      -6.82323912287484
F        -0.89665570216678      -1.94710251531846      -4.74924977555846
F         2.32733529859326      -0.13780679573348      -5.82051103298412
F         1.19119224621725      -0.50296182247775      -4.00287905570752
F        -1.73326375693650       4.42247334546871      -5.51414448728863
F        -1.14862797624776       3.14659794454966      -3.88256205045433
F        -2.76764623861160       2.56712461445818      -5.17787781905227
F         0.19820201644080      -3.64720129373980      -6.66342742841907
F         1.34316563108869      -2.00013757435859      -7.43643837515412
F         1.55254915465314      -2.60010042594914      -5.37259171946080
F         2.86437408425299       2.34554947021285      -5.02926711921219
F         3.07173768715435       0.97581682327435      -3.39034572639432
F         1.35462623444307       2.25904175374573      -3.47573129177631
