36
C10H23NO2 optimized with ForceField in AMS.
N         0.00070319673405      -0.00247066482445       0.00011196339587
C        -0.84723416605901      -0.26217249249375       1.21610387953652
C        -0.85017375205339       0.25728104138123      -1.21373513330008
C         0.84970862561062      -1.21746053632934      -0.26035894947824
C         0.84997271800738       1.21299852527374       0.25863542050093
C        -1.90121459293108      -1.37825725410868       1.07552227346436
C        -1.90081715026364       1.37568999478123      -1.06957208787572
C         1.90209962863221      -1.07595096284312      -1.37757428155375
C         1.90503071603541       1.07245200625315       1.37337096863798
H        -0.21135375291196      -0.55493549300750       2.07818912956500
H        -1.37154358449044       0.66386882131352       1.53814702320352
H        -0.21656206089471       0.54950134005181      -2.07750604303838
H        -1.37636464678525      -0.66840843487518      -1.53466150128304
H         1.37560684780047      -1.53842809449139       0.66518585126133
H         0.21462137614179      -2.08026775692460      -0.55251720108577
H         1.37311788050889       1.53466635371578      -0.66819674217390
H         0.21550206431814       2.07552242255359       0.55278602556644
H        -2.45531945208653      -1.46508971857261       2.03398945517767
H        -2.64657236942391      -1.15604223013991       0.28735196462933
H        -1.43379885830796      -2.36403373176698       0.88427348944322
H        -2.44991043641570       1.47208003580760      -2.02862823018430
H        -2.64815845385635       1.15048930973782      -0.28395448306783
H        -1.43296005021699       2.36009124131192      -0.87530270516068
H         2.45760860122746      -2.03354466489104      -1.46476782551203
H         1.43348020868363      -0.88518357540613      -2.36288030041399
H         2.64659502193389      -0.28700107451678      -1.15587592710089
H         2.45992473596782       2.03058368850979       1.45919120945725
H         1.43886748333234       0.88154869419612       2.35983115536888
H         2.64954987057487       0.28411084624530       1.14995568027367
C        -3.85970801771894      -2.39230258406053      -3.60488880218108
C        -4.70323735567300      -1.39000982675922      -2.88386714052702
O        -4.28001491871068      -0.26357070183272      -2.68712852608832
O        -5.81340571724919      -1.69782860061934      -2.48197155515326
H        -3.23504743877630      -1.88773300347574      -4.37193166150707
H        -3.19815728035549      -2.90820704195165      -2.87892457149917
H        -4.50281249352845      -3.14331317534195      -4.11035811809747
