57
C15H32F2N2O4S2 optimized with ForceField in AMS.
N        -1.09717896114148       0.81304356924425      -0.18865326134764
C        -1.56723438149990       1.86576095934248       0.77089513251097
C        -2.08898375354921       0.70765837174879      -1.30858644834159
C         0.19624121804061       1.27029207013925      -0.80531363688542
C        -0.93290849033456      -0.49341224548244       0.54091807352259
C        -3.00618915232259       1.65182774903906       1.28272115291504
C        -3.53034445667579       0.43453260832428      -0.84854260509651
C        -3.99209685771553       1.51357400677692       0.12621507849367
C         1.40437056311184       1.37478057748388       0.15838859386432
C        -0.35203899636536      -1.66095479340091      -0.29324506862240
C         2.64987862108621       1.87189015839963      -0.58814104148052
C        -0.20952048112001      -2.92227505032999       0.56868023850191
C         3.85644984606805       1.96590184055072       0.35168242600753
C         0.36767649596141      -4.08649209516288      -0.24477748938589
C         5.10079249662165       2.44065278262648      -0.39241098551845
C         0.48839104978229      -5.34716090595469       0.60672911350252
H        -1.53028989496249       2.87218755458320       0.29319798286046
H        -0.91019815137508       1.91203538504001       1.66605993494656
H        -1.79357397225549      -0.06815761623186      -2.04519416666690
H        -2.11278380602376       1.66132872934833      -1.88672504364712
H         0.05751737307882       2.27291070996531      -1.27272378224113
H         0.48029390719133       0.60386476258596      -1.65016141094403
H        -1.90012648726935      -0.84277147174974       0.95038755783822
H        -0.29314039101929      -0.35216863102052       1.43955654599699
H        -3.30013346597302       2.52702986698668       1.90174147164965
H        -3.06493899310156       0.76225923440634       1.94377480031061
H        -3.62435666002721      -0.57169094495905      -0.39125883743553
H        -4.19790176489365       0.44526654971154      -1.73697969140559
H        -4.07642750635524       2.48609171106772      -0.40741273091546
H        -4.99632470919232       1.25135593404452       0.52237171332839
H         1.18631109954095       2.08735087699294       0.97951242062124
H         1.64246921367204       0.38427613536222       0.59677594084479
H        -1.02409661850773      -1.90085338441687      -1.14162222679914
H         0.65051452419405      -1.40244567065227      -0.68929010544443
H         2.44444870688461       2.87607754057148      -1.02043340558718
H         2.88557971566907       1.17001472180505      -1.41825998899833
H         0.46347479275466      -2.70697421357331       1.42790578859549
H        -1.20809179005569      -3.21157381349698       0.96462743062176
H         4.06355740293734       0.96921894369119       0.79935873494016
H         3.63365082736379       2.68373492443999       1.17017484787114
H         1.37485334694351      -3.81260333302193      -0.62817501244306
H        -0.29296374366485      -4.30130705116814      -1.11291668365040
H         5.96285365472939       2.47532153942458       0.30655938208582
H         5.34464834360820       1.74274448644294      -1.22136672255632
H         4.93657370418635       3.45877471034959      -0.80488374065830
H         0.91138305580289      -6.17150471403064      -0.00524943566203
H         1.16111542215253      -5.16599843688252       1.47201887849936
H        -0.51116567972708      -5.65867528588353       0.97821031922182
N         5.13669792037124       0.38352908907660       4.85162365545738
S         4.47170134328521       1.77684874234524       4.31102512984968
S         4.27462966485429      -0.67251274163918       5.75611619765530
F         4.19900455097471       2.80224035841438       5.60615236851052
F         3.16605297241326      -1.46163248019312       4.78059580189770
O         5.40872597991031       2.43788336653979       3.34026371493025
O         3.15903274289474       1.48746803740961       3.63858677438051
O         3.53308445762881       0.06377669900184       6.83639359188955
O         5.20209858721410      -1.68089608513222       6.37288155481148
