45
C11H24F2N2O4S2 optimized with DFTB in AMS.
N        -0.03614838112136       0.26818224125406      -0.73925334774378
C         0.55635779962487      -0.91834012621834      -1.43718625385463
C        -1.49482441414928      -0.06876391477120      -0.68148426470805
C         0.49814110736684       0.38673055297584       0.66258578699289
C        -0.19164254683730      -2.12348530862749      -0.88618470399473
C        -1.56203373766179      -1.57976779314188      -0.45250094233886
C         0.20993014995908       1.51002624838449      -1.54390803582223
C         2.00888041822945       0.64568356015317       0.74794037651755
C        -0.41531153617414       2.76337165621488      -0.95477758382973
C         2.75926037332565      -0.51529859776485       1.41059922677435
C         4.26809425678215      -0.24839407567597       1.40323224655228
C         5.04058075693489      -1.43708309457262       1.96960339339074
H         0.37738113810685      -0.80320626324750      -2.50675232339566
H         1.62772593915224      -0.95212079310140      -1.26143309595049
H        -1.97898580979999       0.50760092900525       0.10726661636927
H        -1.93276982114521       0.19917076201407      -1.64555434129012
H        -0.06097924928310       1.19234327403181       1.14331152014535
H         0.24133951513416      -0.54463426982022       1.17209322770446
H        -0.28283513484825      -2.88916419009876      -1.65741876516704
H         0.33812136983882      -2.55945299311683      -0.03668347019240
H        -1.75698807567755      -1.80489995106230       0.59804963093370
H        -2.37106984394566      -2.00862226492709      -1.04628513262490
H        -0.18972888425486       1.32067735682097      -2.54228370392500
H         1.28948033626530       1.63124003358999      -1.63410906237492
H         2.17256879249156       1.56170742056136       1.32325926982055
H         2.43081545405864       0.81002035760305      -0.24396303263045
H        -1.48864462300063       2.65033391654519      -0.80748964076148
H         0.04742810295310       3.03931973511302      -0.00847449265869
H        -0.24972540080493       3.57624941722420      -1.66146884285934
H         2.55578055401760      -1.43938796748586       0.86148598708662
H         2.40451647954889      -0.64720624245223       2.43888119046617
H         4.59087469308673      -0.06519087480835       0.37457372800547
H         4.48238797380593       0.65010822052523       1.99208250092163
H         6.11030117604606      -1.22988894376220       1.94689398568711
H         4.74491919864811      -1.63335708018815       3.00183482657796
H         4.84666482323955      -2.33007114441154       1.37445136432762
N         4.22598339657258      -0.67080482878272      -3.69865742729224
S         3.81850441759762      -1.89308680933137      -2.77188104985028
S         3.36784273395571       0.64832990948384      -3.57390934226368
F         2.30536598090214      -2.30304571450412      -3.25500800656954
F         3.59335236814137       1.16449177208068      -2.02090124449227
O         4.62248068907229      -3.01191680347344      -3.11606461344864
O         3.62558419573696      -1.58574634843513      -1.38001398673995
O         1.93653499651114       0.49019784595191      -3.62757913111246
O         3.96220144529776       1.66388721204854      -4.37023242218215
