22
C8H8F3NO2 optimized with DFTB in AMS.
N         0.06367305163727       0.84594026599012       0.17071397771288
C        -0.04243645745753       0.86435672693306       1.53709434776975
C         1.29034900887079       1.17156836680481      -0.45756911213473
C        -1.14951923094916       0.94367101860199      -0.63789427651058
C         1.05056095106002       0.80867453715573       2.33017657842447
C         2.46869227710321       0.85990394500671       0.38510275230542
C         2.34293600293183       0.74348322118968       1.71876577764133
H        -1.05332066853499       0.84172140674133       1.92825282651200
H         1.33442533101271       0.75141439086381      -1.46906835140144
H        -0.93151841688758       0.60144208130427      -1.64881545592075
H        -1.92241496620700       0.31272044539514      -0.19902239060135
H        -1.50272918500271       1.97772944739781      -0.67708363549806
H         0.95172233285337       0.77477799062787       3.40602958444433
H         3.42509158343571       0.81579022486807      -0.11918662662519
H         3.20996159901989       0.56189172767831       2.34342509525841
C         0.88054188348700       3.14984864573637      -1.84052994321506
O         1.31784257882298       2.70307935083875      -0.70390544563171
O         0.43711318688343       2.52438570419850      -2.76102661451551
C         0.99272823187588       4.71806706711049      -1.88243254510227
F         0.24556074050209       5.26125859458216      -0.91732247044278
F         0.57397724698571       5.19595869711564      -3.04874904385360
F         2.25391800475710       5.11029333005942      -1.69856392141555
