32
C10H18N2O2 optimized with ForceField in AMS.
N        -0.68604836764224      -0.86207389639474       0.37228234463210
N         1.50980754972016      -0.52132804972898       0.29464108054932
C        -2.08780915741729      -0.76200611956138       0.77602892373184
C        -2.91462551014332      -0.00382391872924      -0.27032401199630
C         0.36469786121851      -0.24543843753248       0.94768468826675
C        -0.18778977020291      -1.55838938332642      -0.66955390913878
C         2.83251353158227       0.02706606838912       0.58059360385073
C         1.17479718568538      -1.34355527003058      -0.72011761902564
C        -2.41293685996266       1.42506533581853      -0.47338212869599
C         3.15503606347194       1.15664319282686      -0.39057717118669
H        -2.16691089770806      -0.24179455743394       1.75605123385979
H        -2.50498146215366      -1.78397647383791       0.90347046363099
H        -2.88528548287297      -0.54556663918244      -1.23992890908603
H        -3.97299736470344       0.03309336007379       0.06746046576309
H         0.29308068362525       0.41621718062003       1.80231824322719
H        -0.77215990916775      -2.16606929922351      -1.34808800337177
H         2.86150319054157       0.42515374445529       1.61835119366380
H         3.59751845049985      -0.77482040345251       0.49707812057892
H         1.86628065538407      -1.74574292789013      -1.44931673980824
H        -1.38683236064077       1.41781781274539      -0.89841444614530
H        -2.40692671237957       1.97525908509331       0.49155549859098
H        -3.08181845579855       1.95610178400691      -1.18277080730526
H         3.14869575795054       0.77932106292979      -1.43501155257510
H         4.15947808190232       1.57212613247079      -0.16416240468072
H         2.40099086254029       1.96637946898052      -0.28999857678460
C         1.28544061484891      -5.11313545207221       1.76640157065398
C        -0.09210986936765      -4.55948008990112       1.58026091345275
O        -0.88766911963241      -5.13491815044076       0.85578256834563
O        -0.42632775113307      -3.53583326781625       2.15424797605241
H         1.22172783996735      -6.12513990926776       2.21847561039608
H         1.79682524925937      -5.18473107706532       0.78365216743268
H         1.88414143492851      -4.45839182922264       2.43517279412138
