23
C7H13ClN2 optimized with DFTB in AMS.
N         1.16240929249517       0.52501209852565      -0.46710577123716
N        -0.98959556092103       0.39014901678906      -0.51993516805559
C         0.13517945675220      -0.10195577668218      -1.04670594015760
C         2.56800923400695       0.19935179143793      -0.68469565376431
C        -2.33124182985240      -0.10687073478187      -0.80739679779215
C         0.68472514605684       1.33810434551689       0.53297390072469
C        -0.66691744469579       1.25361775477032       0.49974828447215
C         3.09386925384621      -0.65429592120750       0.46466440111350
C        -2.81106103023735      -1.01588057157430       0.31929355206347
H         0.19482016585121      -0.71282000456143      -1.92830551887488
H         2.63612043683006      -0.34309424455081      -1.63079377738451
H         3.12630554760500       1.13723216090529      -0.76981311460443
H        -2.99461375654115       0.75542527068056      -0.92970808103792
H        -2.28188075186236      -0.65587043167354      -1.75108218863591
H         1.34023566805199       1.91222960001830       1.16388987824989
H        -1.41908083518539       1.74001888083040       1.09540387907846
H         3.05675141301949      -0.09827615947850       1.40102173063886
H         4.12533499135646      -0.93620848994215       0.25813437604025
H         2.48479902166916      -1.55293940050634       0.56170197366838
H        -2.11216127395938      -1.84258032930903       0.44558045272758
H        -3.79501754575832      -1.40672682051642       0.06401532646798
H        -2.87822676858729      -0.46172335174597       1.25485839986740
Cl        0.24865608015975      -2.40527740904435      -0.01266145026817
