33
C9H17BF4N2 optimized with DFTB in AMS.
N         0.72665216836896      -1.14606132336506       0.56096132402076
N        -1.37000601522817      -0.85791546179782       0.16312833656492
C         2.04671630181964      -1.06195394950665       1.18157081423011
C         2.96316664858453      -0.16030689579778       0.35506611115741
C         2.47812965924640       1.29043107716622       0.32484946247735
C        -0.37738372759960      -0.56097379349134       1.00998320863519
C         0.45156302110680      -1.81493452426315      -0.59755530709078
C        -0.87031979481633      -1.63278356012172      -0.85242818711147
C        -2.73627407179915      -0.36099841748351       0.25338161265629
C         3.40500624409499       2.16140633859413      -0.52210396068833
C        -2.87088032399408       0.93280195621915      -0.54447418890962
H         1.91412120793853      -0.67741308387777       2.19658887795469
H         2.45690185885809      -2.07486064807300       1.21394515523328
H         3.03232500393070      -0.56148952474703      -0.65890887026982
H         3.95924212456373      -0.22040709720277       0.79986297353129
H         1.46339731703572       1.33088011469919      -0.08964133825740
H         2.43495852554271       1.68711504128788       1.34597941712592
H        -0.46786222554107       0.02714556360785       1.90680131431138
H         1.21776208452689      -2.36354763696180      -1.12634934773366
H        -3.40260617972273      -1.13168445142946      -0.14247573682299
H        -2.96944994838730      -0.19312724215614       1.30818129076775
H        -1.49470049983795      -1.99077858215243      -1.65177975691112
H         3.44102011133379       1.79133871738630      -1.54706834114920
H         4.41578999517819       2.14896580528741      -0.11355742509531
H         3.04603968557306       3.19083280878548      -0.53443705262284
H        -2.19699179445572       1.69217942476776      -0.14946356358902
H        -3.89508751645563       1.29543764225434      -0.47393982142507
H        -2.62789478785510       0.75774921534171      -1.59170734644545
B         3.47732817450394      -3.41212586692863      -0.66167623118487
F         2.30123109552245      -3.80102201364361       0.04716426770807
F         4.27942421864967      -2.67586437131824       0.22427821434785
F         3.03974971913346      -2.52885489572772      -1.69288681164143
F         4.12635410468058      -4.49574326345179      -1.17880920437391
