23
C7H13ClN2 optimized with ADF in AMS.
N         1.16816387439283       0.86514608904287      -0.27568813946065
N        -0.96851754452230       0.59025431875300      -0.44552378322933
C         0.21826239737645       0.14818129531019      -0.90195799570430
C         2.59901412633655       0.53393276510479      -0.35147245639892
C        -2.24472475880229      -0.06824073546342      -0.76391837569839
C         0.58175852161222       1.76824966426665       0.58971143948288
C        -0.76839879904526       1.59479504537362       0.48305998530140
C         2.98563567077275      -0.41589169833766       0.77138799273673
C        -2.34037707549534      -1.41679894791058      -0.06660337001796
H         0.42809709902084      -0.84906864902862      -1.42186443229041
H         2.75495632666990       0.05260040090261      -1.32773522169653
H         3.15894580381510       1.48111465973130      -0.32673985581745
H        -3.04488161714344       0.62261153669449      -0.45914333246210
H        -2.28924909573903      -0.17973840484090      -1.85760801023975
H         1.16288088613587       2.45679459509247       1.19113329799144
H        -1.59030115920864       2.10552795716823       0.97011582448417
H         2.77758673529301       0.02653441914594       1.75730264301021
H         4.06048335210012      -0.64148115539512       0.70854753826345
H         2.42394457246554      -1.35702081099535       0.64988935726702
H        -1.50894048241707      -2.07036429538095      -0.38509577228135
H        -3.29311316419323      -1.90114255136120      -0.32723008621303
H        -2.29591891761020      -1.29113164642923       1.02552782970930
Cl        0.96002570838563      -2.68253924474314      -1.33574197783642
