26
C4H12F2N2O4S2 optimized with ADF in AMS.
N         0.61330240496479      -0.08190197354334       0.59705648040898
C        -0.83141222729291      -0.46657429237357       0.57792666012969
C         1.28584350495241      -0.74182600267809       1.77303351562509
C         0.72632362081653       1.41635073890594       0.70483372032554
C         1.27751470409597      -0.53635367646454      -0.67215044158585
H        -0.91006793592733      -1.55501414058681       0.46189607021532
H        -1.28927100373144      -0.15403693067296       1.52487049109284
H        -1.32188516692816       0.04065827442776      -0.26255659865898
H         2.36823226379559      -0.61623880457756       1.67435848488201
H         0.93583070275367      -0.26202373479677       2.69496124091781
H         1.02776369743461      -1.80851455026824       1.76036048868426
H         1.79521594796312       1.67671365887838       0.73558052595584
H         0.22613247469128       1.85577850723746      -0.16792693760984
H         0.24264014221324       1.73358038021884       1.63636565151981
H         2.31617670458691      -0.17992420267335      -0.68038845318180
H         1.24929056644152      -1.63301979129345      -0.70641885901684
H         0.72665344866003      -0.11273893898776      -1.52145227351432
N         3.78386972231126       1.38276168007243       1.32519017108063
S         3.82226319490085       1.37426581371610       2.94055181892754
S         4.89511649229683       0.62980612680470       0.43653547658182
F         5.00181254215220       2.44865916662023       3.30243510156017
F         4.50678248956993      -0.98618533156515       0.69767695456874
O         2.58629488015111       2.00851641162636       3.37296551604715
O         4.24611891765454       0.12431648057897       3.54316077292244
O         6.26903625832097       0.74358478482562       0.86827080376399
O         4.50389047725249       0.82538078906881      -0.95081425914205
