37
C11H24ClN optimized with ForceField in AMS.
N        -0.24197448264816       0.30261724454425      -0.15972557443179
C        -0.95060233715839       1.25435869899734       0.75902353769548
C        -1.14278155425822      -0.00463687389029      -1.31886296863201
C         0.13999458416876      -0.93970006583129       0.60079139004342
C         0.96631087515183       0.99581541372148      -0.72842039484133
C        -2.34634460865031       0.77669166346898       1.20882543419746
C        -2.52053485943805      -0.55347072121403      -0.91392166459159
C        -3.23029934936654       0.42623250615954       0.01517135130384
C         0.95019454407540      -1.99163194950132      -0.19586717517639
C         2.09045643533665       1.32937127842498       0.28361172515265
C         1.29351824413285      -3.19159419066251       0.68370470913440
C         3.20501632167857       2.12873628883522      -0.38771626857876
H        -0.36146092950478       1.43114988536158       1.68428993528302
H        -1.08086544262839       2.24717169759373       0.26944031389011
H        -1.32776963990769       0.92001436799959      -1.91511222380382
H        -0.66953989093448      -0.71267244109675      -2.03069249815955
H         0.71839764971345      -0.66888508644460       1.51154802961792
H        -0.75708304118783      -1.45613436477850       0.99498596419752
H         1.41108558038511       0.39055985199826      -1.54982053266729
H         0.66077416075353       1.95039639154787      -1.21733141706046
H        -2.26606315518272      -0.09312950359814       1.89345844552872
H        -2.83416757046734       1.59241002358039       1.78579083676200
H        -3.13695482448856      -0.68798950290416      -1.82914287276802
H        -2.43424256248036      -1.55169825314703      -0.43725821170989
H        -4.17918677912359      -0.02565997145976       0.37621437589397
H        -3.48138227929395       1.35391386786425      -0.54520115173483
H         0.36537041465525      -2.37055390545597      -1.05776342979146
H         1.90336985136349      -1.56572046373469      -0.56888692823652
H         1.70555215745561       1.93709189427412       1.12648195773956
H         2.54058811974799       0.40030751035471       0.68972939758997
H         1.86842108023800      -3.93427789134339       0.09102377392470
H         0.36582891524980      -3.67789275047448       1.05486085174649
H         1.91238264740980      -2.87303658221612       1.54956936496481
H         4.03724641564322       2.28460037120692       0.33118623236103
H         2.82529869218760       3.12136929886979      -0.71135495671026
H         3.59651294702829       1.58290538637488      -1.27203028022239
Cl        6.32161838134416       0.11460462657516      -1.53499491231067
