47
C13H28BF4N optimized with ForceField in AMS.
N        -1.54218977006889       0.09692934714428      -0.08013597927953
C        -2.55408614115060       0.49023353107324      -1.11530745971630
C        -1.78923741114598      -1.32893179689490       0.31307891827763
C        -0.19556348464095       0.18951194621312      -0.74469593429435
C        -1.61865745471738       0.97513038057191       1.14024036847790
C        -4.01439617572896       0.28293009243246      -0.68025829167088
C        -3.23472804646405      -1.61055831638570       0.77393703458662
C        -4.25148794558676      -1.16776744491902      -0.27413238755743
C         1.02818511386658      -0.12322880886483       0.15208697415958
C        -1.28127438053543       2.46046673172635       0.91789959389679
C         2.33045338829494       0.04001687635589      -0.64395866343739
C         3.55638879819824      -0.29918138974958       0.21127949391320
C         4.84781245447540      -0.10283992227407      -0.59024207452285
C         6.07280076861993      -0.46636596322527       0.24051246974026
H        -2.40796721088430      -0.11406847816639      -2.04150669870019
H        -2.42251754557454       1.54500024993990      -1.43475064742824
H        -1.11885898989308      -1.63416645115841       1.14550563369542
H        -1.57180663939214      -2.01239066800546      -0.54027422163620
H        -0.05312689115617       1.20008750845015      -1.18918640658021
H        -0.15252467789243      -0.51094230036503      -1.61129796903782
H        -2.62769654808478       0.94965057043472       1.59398041620464
H        -0.95269984739994       0.58912482977165       1.94222143447066
H        -4.68108253585005       0.52567970945800      -1.53627608032458
H        -4.29234878846627       0.97039799869461       0.14488686805945
H        -3.44686345141360      -1.11442589927426       1.74395971491142
H        -3.35196966368242      -2.70290507974950       0.94344978147213
H        -5.27884762281076      -1.27374186536304       0.13661946548047
H        -4.17035898006959      -1.82259447919995      -1.16976585767204
H         1.07142316965813       0.56821248771068       1.01760100113364
H         0.97622413623434      -1.16645808127519       0.52591053481251
H        -0.23666150619627       2.60311408421149       0.57778958923453
H        -1.98288867168951       2.94081667694846       0.20842220760349
H        -1.38428102942122       2.99563894035419       1.88607752756246
H         2.41302763928534       1.09094176320709      -0.99948337257460
H         2.30916282007528      -0.63115068367447      -1.53080228234375
H         3.48854328751938      -1.35702453947633       0.54879026455799
H         3.57698478320794       0.35814776298891       1.10854866453649
H         4.82767791068849      -0.74375349959745      -1.49862269596115
H         4.93246314577472       0.95864387173181      -0.91075096750241
H         6.02295595628251      -1.53001781504794       0.55599858714672
H         6.98740119912156      -0.32163643426366      -0.37097169132536
H         6.13571715351895       0.18292780446868       1.13963903752141
B        10.52996331384604       1.19667142485381       0.46413221560704
F        10.76684222279347       2.43686436122385       1.11414221850888
F        10.90617381942357       0.13098451938297       1.32438663134328
F        11.29515051614819       1.13378156959431      -0.73070644206349
F         9.15075220418311       1.08605796298793       0.14845211891422
