47
C13H13F18N2P optimized with DFTB in AMS.
N         1.26323686961457      -1.26799793832317       0.75249551855320
N         0.03316219550771      -0.34944558167329       2.26190842626758
C         2.08704727881613      -1.45796055181844      -0.43858975106047
C         3.55329774386171      -1.10694118339564      -0.16310447514272
C         0.63851881591426      -0.13984652778840       1.09336439977640
C         1.07364888963556      -2.20026985573250       1.73352930889463
C         0.29352353124498      -1.62236053770094       2.68464275632304
C         3.76381059336428       0.38573484625898       0.07170071132831
C        -0.71993190087459       0.63796644028578       3.01706828905654
H         1.67667797158833      -0.83020076985045      -1.23493648144864
H         1.99907705292190      -2.50756990690317      -0.73001919562529
H         3.90048189214251      -1.67358169348406       0.70328261596127
H         4.13160897610536      -1.42820818115297      -1.03377657259675
H         0.60847574494989       0.76899640506020       0.51814108092866
H         1.52637118187944      -3.17540756213157       1.69665447201938
H        -0.06314519861265      -1.99787500541450       3.62784684792593
H         3.19352676826294       0.72398025248862       0.93671168230257
H         3.45389173026668       0.96236671930629      -0.80139668086843
H         4.81888793146223       0.57650525570084       0.26251630474676
H        -0.88838012854967       1.51274724606663       2.39205278069505
H        -1.67150994069782       0.20402173392775       3.32216541702631
H        -0.14426414253680       0.91673819904763       3.89965723358525
P         3.28250812712638      -1.95200796707068       5.31365783860447
F         2.98587062008120      -3.18857404179534       6.37502771424767
F         2.26161209801332      -2.65555665867723       4.14137060069813
F         4.26209385390998      -1.19528530704943       6.43214865188552
C         1.64632559279171      -1.15769601673741       6.06280197782874
C         4.77506025015423      -3.06284901881865       4.58474964985530
C         3.73271960449559      -0.43232540371422       4.03466159595374
C         1.64157808539781      -0.59211883708902       7.50547603045731
C         4.99808308818312      -3.26595492422627       3.04834556394465
C         3.31845458895232       1.06807210917514       4.08794685212220
F         0.66570316942878      -2.08105032523989       6.02100618937777
F         1.21999608690745      -0.14947876466273       5.25218369387241
F         4.59239474419067      -4.31625916902524       5.03662345304588
F         5.95104056368891      -2.63885421699707       5.07218798134581
F         3.36938880080056      -0.82426955254486       2.77915734530933
F         5.07982470772542      -0.40720344596398       4.05074481038585
F         0.41003328436912      -0.16777301871331       7.81579817835285
F         2.46511439625566       0.44316720822867       7.62702024085743
F         1.98977856067196      -1.51839068715513       8.38700712279410
F         5.77095113196976      -4.33459262964208       2.85787511703913
F         3.85354598638045      -3.49149638326853       2.38307288151328
F         5.59761748318631      -2.23713432671636       2.45613783952592
F         2.15948835333029       1.26121063878413       3.42697108386645
F         4.22921927437678       1.82057447295709       3.47055435819858
F         3.17335874784534       1.53130487108879       5.31938555736890
