23
C7H13ClN2 optimized with ADF in AMS.
N         1.10835233853680       0.25917486623242      -0.61068125750513
N        -1.05865369415132       0.39406193868301      -0.56537688550674
C        -0.02247841579097      -0.40271081727796      -0.88248093249072
C         2.48001730526199      -0.26472354884508      -0.75918700150394
C        -2.46938764241406       0.00296288272891      -0.60718173704998
C         0.81020094920524       1.50663174786595      -0.09568377810293
C        -0.55566085361680       1.58389182984303      -0.06778205618193
C         3.00001695072231      -0.78393907177270       0.57149635518941
C        -2.94206807072981      -0.53755638636710       0.73430381248605
H        -0.09972174541284      -1.39939180919421      -1.29856156808301
H         2.44607637822092      -1.03592727922657      -1.54433400994223
H         3.09818725465348       0.60421435220852      -1.06339345836327
H        -3.04379720969220       0.89168287337563      -0.90983516927663
H        -2.57905472659029      -0.74720430196874      -1.40448048263067
H         1.68142582159524       2.18491657061836       0.14873661431780
H        -1.20736886158014       2.39060888559522       0.24693454661716
H         3.12566474205128       0.07329728159769       1.25196746667559
H         3.99257974256084      -1.23092786119866       0.41521377877259
H         2.33074028081912      -1.54085732904049       1.01105987124973
H        -2.37091161888139      -1.43454620062663       1.01611648414711
H        -4.00674601196120      -0.80507773530814       0.67243661024259
H        -2.81739101712039       0.21487920211255       1.52641232019748
Cl        3.64607407641417       2.64509590686498       0.19055852064164
