60
C18H39NO2 optimized with ADF in AMS.
N         0.24225744665638       0.15669525213239       0.17028054403748
C         1.21677271550684      -0.71700741480097       0.95733318637858
C        -0.80994870370171       0.70319177572841       1.11117424266329
C        -0.36204446307356      -0.70995740974301      -0.92953841478727
C         0.97705460623869       1.31315505309746      -0.48973031070219
C         2.08174564741679      -0.00481222112264       1.98435846265432
C        -1.90302225416605       1.55259558850982       0.47882939810378
C        -1.29849779755847      -1.81282584781972      -0.46188384059230
C         2.16014541592470       0.91124446108502      -1.35043670775550
C         3.09817090433637      -1.01341601400490       2.53918860421601
C        -2.92128790215861       1.99329317301427       1.53642547326786
C        -1.51992090989989      -2.79478626860527      -1.62043013619143
C         2.82070636974942       2.14311415948957      -1.97003482770368
C         4.06322488206487      -0.37425765398085       3.53279909499184
C        -4.03419065005053       2.85710361437501       0.94664953348318
C        -2.38143272149409      -3.98709421204357      -1.21515902467376
C         4.02220819661874       1.74499259760994      -2.82688403342163
H         1.88079890106624      -1.21701162013645       0.21412552248802
H         0.59906174462939      -1.48069410071648       1.44987355202315
H        -0.26843972535143       1.28482390861415       1.87126602569476
H        -1.25008189017399      -0.17350888073776       1.61067908848156
H         0.50802248077965      -1.18289118558623      -1.44420313225531
H        -0.87549311018896      -0.02338531765615      -1.62087198408460
H         1.28723630225293       1.98600975469273       0.32611405506036
H         0.22457009960938       1.83989509606687      -1.09487620061266
H         1.49218663693807       0.42570590605462       2.81525640420584
H         2.64468171188859       0.81922340380907       1.51355414703435
H        -2.42439342552935       0.98387838763214      -0.30966315218469
H        -1.47448026203513       2.45322315791973       0.00746120314353
H        -2.26994048694943      -1.42083002762825      -0.10529624626889
H        -0.84513135987173      -2.37615363983641       0.37106911995202
H         1.84238298211253       0.21826897003728      -2.14692060106379
H         2.90149650953105       0.34039252753890      -0.76875446484048
H         3.64621653171422      -1.44925699684884       1.68613824987757
H         2.55523144576019      -1.84484723522617       3.02601625167239
H        -2.39952133373152       2.55490438444558       2.33293910719848
H        -3.35963261205138       1.09981982663172       2.01700706279777
H        -0.52882559711057      -3.13185175101432      -1.97234486517836
H        -1.99213142821717      -2.26052537296295      -2.46573855396814
H         3.14651051372359       2.83638813854158      -1.17106778378456
H         2.08589655072599       2.69339296542515      -2.58792725212827
H         3.53062249382823       0.02920158481175       4.40944824976532
H         4.61952666965451       0.45325873553422       3.06295783978736
H         4.80274312721834      -1.10435364777489       3.89524337688884
H        -4.58802107263724       2.31089141141856       0.16674762545497
H        -3.62561727548216       3.77268452022860       0.49034141325959
H        -4.75666268682448       3.16225007764194       1.71859405318416
H        -3.38759461148366      -3.66969411024261      -0.89558334604684
H        -1.91969187961261      -4.53934308339788      -0.38025100736945
H        -2.50178378724375      -4.69262471585331      -2.05098615464912
H         3.71197071366325       1.06578515078205      -3.63606390164100
H         4.76846037365256       1.20972913474187      -2.21983334856755
H         4.50840610167860       2.62228330707798      -3.27993803349061
C         3.82038528151581      -3.58554352939221      -2.34655499512322
C         2.95537916643646      -2.50289131388323      -1.68766497491259
O         3.43281476497731      -1.94102557808523      -0.65421213888617
O         1.82242051520226      -2.27746434799627      -2.22077787724637
H         3.60940167475593      -3.65975239882809      -3.42266124670115
H         4.88877403393939      -3.39389378088473      -2.17362072906083
H         3.57690471043016      -4.55853074607899      -1.88922717567397
