37
C11H24ClN optimized with DFTB in AMS.
N        -1.42136488145564       0.16196390152536      -0.23448879290486
C        -1.75909486317741      -1.09461464295875      -0.99980985988561
C        -2.53379893251294       0.29538056638611       0.76704461656364
C        -0.12173676543462       0.00085522583614       0.49604674382489
C        -2.68345026924395      -1.92674414066048      -0.10908299192999
C        -2.84917648798005      -1.13028902909878       1.18683443704480
C        -1.41184158022803       1.33415823471196      -1.17310318684302
C         1.11802866896616      -0.00576555587094      -0.39768869934047
C        -1.15571398706794       2.66528259713844      -0.48689959788990
C         2.34143317037463      -0.42271328935935       0.42747361484868
C         3.61247553467392      -0.40689328533402      -0.42777999381848
C         4.83429188834005      -0.82505271802940       0.38774670999281
H        -2.28391337019421      -0.79480499014813      -1.90832263020090
H        -0.83831927113003      -1.61563822863125      -1.26089358227278
H        -2.22238932964531       0.94133187299743       1.58746701073785
H        -3.39001090220753       0.72225034220587       0.23547062014319
H        -0.04736119451427       0.81551507832769       1.22050440333828
H        -0.18519956761974      -0.94123523858831       1.04615190452533
H        -3.65078473716274      -2.02960092723471      -0.60569932186966
H        -2.27208091179974      -2.91990959462520       0.07809000031767
H        -2.16040686102980      -1.47987163420008       1.96112191257232
H        -3.86661910108119      -1.19641963830927       1.57336439263810
H        -2.40134609328667       1.34265349460547      -1.64604327023252
H        -0.65617909598442       1.13767747252005      -1.93618973067937
H         1.29067136792998       0.99019070670826      -0.81330417686561
H         0.99169962400069      -0.70180551059305      -1.23090689823655
H        -1.91716218197246       2.87529825102697       0.26234579246414
H        -0.17362746467338       2.70899735929440      -0.01666790819111
H        -1.20491448977354       3.44279077078532      -1.24874519084953
H         2.18316785117678      -1.42858383137225       0.83079214624118
H         2.45987130203514       0.26233828596294       1.27375864794332
H         3.48778350965266      -1.08890358120219      -1.27532667332286
H         3.76766872611889       0.60031474336097      -0.82840524959640
H         5.72469772324873      -0.80580291437691      -0.24037213460141
H         4.98539903916779      -0.14452126537561       1.22662276278334
H         4.70584276032168      -1.83523674429711       0.77846695370834
Cl       -4.42084185683145       0.37114676457243      -1.81003170405687
