46
C12H23F2N3O4S2 optimized with ADF in AMS.
N         0.79871308787958       1.34750426959843       0.99096363000156
N        -1.30163852978750       0.80525008156674       1.10554021323965
C         2.14668120416392       1.59030497341091       0.45698851759642
C         2.95799849271876       0.29864243476005       0.40264176416586
C        -2.65548022449661       0.38859074985090       0.71306496649699
C         2.45812967543483      -0.68519394908707      -0.65232859903635
C        -2.74737749976934      -1.10762313359203       0.42998470201012
C        -0.29924288675302       1.09767136877201       0.26275670244133
C         0.49404612768367       1.19333691252789       2.32573037772715
C        -0.82414697697975       0.85382444699201       2.39729860125611
C         3.09416313146224      -2.06738600861394      -0.51364704027756
C        -1.97097989191396      -1.55578532524902      -0.80667971228274
C         2.49639611894053      -3.07796223839834      -1.48778325248416
C        -2.14071294105815      -3.04996926219488      -1.07095513979785
H         2.61417589871088       2.33921468380065       1.11319888161326
H         2.02381049154878       2.04025048289949      -0.54079326446257
H         4.00875909400579       0.57428304681601       0.20446246703174
H         2.93068798459962      -0.17358774945449       1.40024719712746
H        -3.31816289144554       0.68107060733011       1.54057355695295
H        -2.93534975506776       0.98391685061664      -0.17080568382180
H         2.64351113259890      -0.27872879540206      -1.66588253385083
H         1.36772609741318      -0.81407888694355      -0.54787311372562
H        -3.81972100443994      -1.33897939367084       0.29817930274461
H        -2.40690974879253      -1.66466025412592       1.31816625265930
H        -0.36639102657735       1.12825309541760      -0.81672059444774
H         1.24782276889213       1.25432129140744       3.10032514600477
H        -1.43417425465052       0.57467987679501       3.24593923649294
H         2.93475879385777      -2.41918663093816       0.51982957023938
H         4.18625603246635      -1.98941153900581      -0.66284554833257
H        -2.30830190212773      -0.97192253917014      -1.68484812932049
H        -0.89840880144089      -1.34890867883831      -0.66049769025116
H         2.64173072234150      -2.76470646586226      -2.53485465650642
H         1.41474882720806      -3.18769749090273      -1.30798703482406
H         2.95509785132765      -4.06982863463982      -1.36346665978935
H        -1.76013176327835      -3.63225308899434      -0.21790931487842
H        -1.59086516967665      -3.35737025585651      -1.97219584799144
H        -3.20291814096305      -3.30449200196421      -1.21822391484772
N         1.36085547380916      -3.10960234963413       3.47044228584013
S         2.17270628393141      -2.02343277611053       4.34332507451811
S        -0.01364621015658      -2.73696425549449       2.76806593957220
F         1.21871661474457      -1.80640763678305       5.66805966827812
F         0.48057404377985      -1.76253798358317       1.46506060788258
O         3.37305286078643      -2.65650581236056       4.83671329966261
O         2.24538209999566      -0.68973986220931       3.75186082548798
O        -0.91408794227380      -1.84523814462108       3.49070950167728
O        -0.54503648225221      -3.90478687856112       2.09444623070823
