33
C9H14F2N2O4S2 optimized with DFTB in AMS.
N         0.83134218444426      -0.37382866627660       0.02951552913341
C        -1.58113506462863      -0.01715598104573      -0.21588708235007
C        -0.42514584311014      -0.19802747031655       0.77188279395487
C        -2.92906986201629       0.02827466689556       0.50478595244476
C        -4.05475738679358       0.23854550719277      -0.50694514274020
C         1.49288998579034       0.70961072312676      -0.40916196706214
C         1.24953948092556      -1.61322483664777      -0.27425665018420
C         2.65302560229141       0.57117177798014      -1.14066917797922
C         2.39477465410500      -1.80225168401226      -1.01786411132997
C         3.11362364330330      -0.69943583119102      -1.45880687841020
H        -1.57214583825329      -0.85285232381424      -0.91803320886596
H        -1.42395617143352       0.90132775434555      -0.78717875184874
H        -0.57779534835908      -1.08579092888750       1.39058412159272
H        -0.31812854053842       0.67520928506922       1.42056265790972
H        -3.08597791075766      -0.91362920139341       1.04112123973888
H        -2.93346234696948       0.84005157382077       1.24044391889752
H        -5.02174764821114       0.17340752414594      -0.00900831518124
H        -3.96612421044538       1.22028305133943      -0.97315781649442
H        -4.00751547726642      -0.51858534981693      -1.28970587479215
H         1.06958541318400       1.67697129888567      -0.17031157582434
H         0.64470704113454      -2.43848989059879       0.07866684325974
H         3.16253960011770       1.45784861650283      -1.49422709319938
H         2.69806843611737      -2.80870010058379      -1.27453551127542
H         4.00087932601842      -0.82754692808465      -2.06575574536758
N        -1.26176654805242      -0.62609137975969      -3.25833560742243
S         0.10603808620695       0.13942874915984      -3.49954113281829
S        -1.23950702117630      -2.21010023602556      -3.36589007826755
F        -0.06229812851604       0.70185074775034      -4.99765338518721
F        -0.44079281077535      -2.61184390072723      -1.95639157105446
O         0.09898738953151       1.32700928439058      -2.68735404770735
O         1.31695877791325      -0.62711375303831      -3.52930000665030
O        -0.44106728693277      -2.81143389651529      -4.37803846447833
O        -2.56183409064773      -2.67712128167012      -3.12464008914046
