29
C7H16BF4N optimized with ForceField in AMS.
N         0.16046462769811       0.28279930722807      -0.07507943927793
C        -0.44715144674518      -1.02188728072893      -0.45106824760707
C        -0.92625434583311       1.05176343734560       0.60346733020533
C        -1.95209419172515      -0.85170650010772      -0.42850757364626
C        -2.17754516983773       0.18584621072203       0.63919208400897
C         1.30717682871420       0.10142588634698       0.86728881082208
C         0.59532557211546       1.01529222026272      -1.29260559725682
C         2.48973499053568      -0.69603144417945       0.29182772508612
H        -0.19385728749138      -1.81916770822254       0.28568010982094
H        -0.11501734912708      -1.38513061132866      -1.45082423382902
H        -1.17417057770114       2.00016074340561       0.07145741067393
H        -0.66548409986829       1.35342747716680       1.64431167852617
H        -2.47285608502243      -1.80506323401817      -0.19022665223128
H        -2.30537475206476      -0.46701139141565      -1.41064835505138
H        -3.09819486925382       0.77774792200980       0.44415044158093
H        -2.26133549351378      -0.31177015504830       1.63103595587828
H         1.69342084618650       1.09393077621355       1.19450166238416
H         0.96114286313070      -0.42173061046778       1.78851835654857
H         1.32043960564391       0.42297701658176      -1.89093575451104
H        -0.27019557627332       1.22897091077705      -1.95905397138229
H         1.07242794195125       1.98397288622335      -1.02259278766519
H         3.20877813774449      -0.91559995577357       1.10795795091643
H         2.16083022395339      -1.66185637776762      -0.14319774871365
H         3.03068979916216      -0.10581253133467      -0.47598190227754
B         5.81811171305411      -1.42793972405814       3.07028537512185
F         6.73496486003940      -1.13683040395419       4.11525214448031
F         6.05495606701023      -0.55460639097947       1.97545417294785
F         4.49071166800119      -1.24742572244839       3.54214174829720
F         5.99209183101637      -2.77308630355007       2.64885086855037
