51
C13H24F6N2O4S2 optimized with DFTB in AMS.
N         1.96283214402947       0.53158409182195       0.97644426827887
C         2.39170031981697      -0.75074775908333       0.34037019124233
C         3.09748939134896       1.46223572594100       0.66759758974020
C         0.69349662710495       1.07413896271114       0.38947815226805
C         3.89319280710904      -0.83898800402616       0.60980413143678
C         4.35593702058325       0.61373192000592       0.81109994569163
C         1.82583718783352       0.36070739157553       2.45181301816396
C        -0.50770831000738       0.15128010552242       0.56005129498325
C        -1.76034184258194       0.85136184636284       0.01764373245158
C        -3.01042234305113      -0.00284370919046       0.24534201259061
C        -4.26617076912623       0.71534669900461      -0.25850909766915
C        -5.51951581279156      -0.12521309408346      -0.02225343196675
H         2.18674640551104      -0.67559861349903      -0.73018096797070
H         1.82617944636681      -1.58237910270434       0.76012689129160
H         3.06274875323041       2.31201000024168       1.34502135660060
H         2.97018337786627       1.80758495538977      -0.36060341252810
H         0.88082241993361       1.25278732249313      -0.67279653078247
H         0.51483739852533       2.03384136767565       0.88116167590461
H         4.39945579887463      -1.31235685426862      -0.23299990297662
H         4.08929375224571      -1.43561861989453       1.50286756383954
H         4.80177668738436       0.74688626843792       1.79855400506290
H         5.09423194073994       0.90716606386598       0.06336262596035
H         1.22414694432277      -0.52133906413762       2.65821922584527
H         2.81197573021255       0.25048472136385       2.89481739654399
H         1.34288230488861       1.24185654443781       2.86496523943232
H        -0.34554653474497      -0.78857558931785       0.02311554683092
H        -0.66070270358714      -0.08070607187819       1.61597549228946
H        -1.63448615755077       1.04831658401849      -1.05225250997964
H        -1.88017161771804       1.81341950877721       0.52478357295533
H        -3.11469840960398      -0.21272277652061       1.31515163578899
H        -2.89946593863148      -0.96097791617124      -0.27462608464643
H        -4.36745693007683       1.67395405431076       0.26059186609206
H        -4.16201259773518       0.92324605550355      -1.32891083871272
H        -5.65041834981820      -0.32462680085595       1.04210891132621
H        -6.39879566195722       0.40606404807020      -0.38675609251578
H        -5.44642435675213      -1.07856585661391      -0.54784260457640
N         1.04352245413940       3.18707971320604       4.57055455560572
S        -0.41184327055645       3.88531054965297       4.61064158927870
S         1.99930971473636       3.64446914218626       3.38291210610464
C        -1.42468163664346       3.00306724476270       3.29027033423470
C         2.60689543763335       5.40859884516888       3.64308886520849
O        -1.03675339271664       3.48315273559943       5.83711022180932
O        -0.42852743574986       5.27213833490325       4.22955112833063
O         1.37747366157979       3.65917111926872       2.06052315775278
O         3.20353289535400       2.83805774541462       3.48937256061597
F        -2.65111156860921       2.77153715955645       3.72266776389707
F        -0.85943217560887       1.81454619891735       3.01167653026500
F        -1.49445129954876       3.68600321909903       2.16048769227862
F         3.87551050413586       5.46160997101433       3.26056667280929
F         2.52916424919578       5.73806216499950       4.91702595941134
F         1.90989953826474       6.25582689376430       2.91687712001090
