22
C8H12ClN optimized with DFTB in AMS.
N        -0.31048637686692       0.03548671607217      -0.39034280273751
C         1.10686925027265       0.26377640848639      -0.69333365404564
C         1.90743089087312       0.31436227276713       0.61323969953939
C         3.40219639867312       0.30966715227945       0.30684503121537
C        -1.15689456579978       1.07532379789489      -0.32511238894587
C        -0.71709208473396      -1.21704173892061      -0.13345706562890
C        -2.48038488778177       0.87827206234804       0.00391520870393
C        -2.03599120449674      -1.46140777908164       0.19691884667924
C        -2.93472213164322      -0.40865664869420       0.27182808527554
H         1.45687121893837      -0.58151996434027      -1.29510753385758
H         1.19696034535739       1.19675401901896      -1.25357691014722
H         1.65915637841774      -0.56903364578603       1.20702641061888
H         1.62653807303021       1.20730390844061       1.18116161323125
H         3.67200863904165      -0.62534687408090      -0.18333287339468
H         3.96514465122787       0.39517304556690       1.23548986107346
H         3.66890812832291       1.14379208260202      -0.34369272936972
H        -0.75266843296204       2.05612564954585      -0.54614798177473
H         0.05515724807262      -2.00011707601091      -0.22692619191540
H        -3.14967431352417       1.72805118676183       0.04848443614905
H        -2.34860441055053      -2.47891918012548       0.39383314598168
H        -3.97239553905933      -0.57959829941387       0.53185098096227
Cl        1.86348388269083      -2.79607963963033      -0.65816818751282
