23
C7H12N2O2 optimized with DFTB in AMS.
N         1.49433032423628       0.00087478008570      -0.26516539898744
N        -0.46296568091279       0.08333374206633       0.62758925836881
C         0.33394485174020      -0.65373984311027      -0.14580448797585
C         1.47436719443050       1.12197447581300       0.52311854695808
C         0.20177423305284       1.21882183892168       1.02490400041059
C         2.69693854302436      -0.51541900847046      -0.89369771174285
C        -1.82192929722909      -0.25324971536926       1.00556692159239
H         0.07704242307047      -1.58636347996615      -0.61713311132179
H         2.27030596562181       1.84407815177944       0.47515029008122
H        -0.23953712042199       1.93079247692920       1.69801882385113
H         2.42810207638120      -1.13669436090624      -1.74751844071820
H         3.31330518821654       0.32643571892910      -1.20071315782093
H         3.24969624445116      -1.09691852675399      -0.15486148662007
H        -1.90682616840690      -0.22830231091207       2.09254390476724
H        -2.51221278156147       0.47186297968201       0.57114873305715
H        -2.05953081655970      -1.25134791818883       0.64070578226541
C         4.91353667043680       0.34274772572115       3.06890548787415
C         3.90439000033260       0.57462761278249       1.92002265809811
O         4.35097167325052       0.99534757998521       0.84123212058162
O         2.70110441021186       0.32254963004451       2.18717656955153
H         5.85998635229747      -0.00816464478105       2.66191364138068
H         5.07828235078533       1.29716484973437       3.56824046552618
H         4.51831653775198      -0.37497369051589       3.78490358222285
