45
C11H24F2N2O4S2 optimized with DFTB in AMS.
N        -2.15021347573115       0.09282754853751      -0.55572893107501
C        -2.04562905366468      -1.02288896022669      -1.56921812334332
C        -3.53503062325540      -0.01567900174053       0.02728508547215
C        -1.14411367441297      -0.11065080522731       0.54742881031513
C        -3.25905214666343      -1.93446077918248      -1.37135373275684
C        -3.87939571896045      -1.49166694974478      -0.04881262058650
C        -1.97064179468829       1.41316195992745      -1.24653050610702
C         0.31068869561921       0.08164059502602       0.13048933956027
C        -2.09509672298875       2.61766017869293      -0.32744460464335
C         1.21806927271139      -0.36173627790669       1.28569173472593
C         2.69377433024628      -0.13049117744663       0.94980024555183
C         3.59422288828006      -0.56798122697674       2.10364251936600
H        -2.02749299293813      -0.59061343269722      -2.57071298471732
H        -1.10955361846475      -1.55657433517935      -1.40613254617965
H        -3.53720842034487       0.37259117380498       1.04364453941728
H        -4.20951312389568       0.57551268928845      -0.59668929844435
H        -1.39297062959405       0.58626895256995       1.34821369889965
H        -1.30089702725388      -1.12421613027210       0.92069028681101
H        -3.96685650215804      -1.79689303216930      -2.19261357576984
H        -2.95723259360128      -2.98255694886745      -1.34823089354540
H        -3.44066077353205      -2.03287333215310       0.79061837163298
H        -4.95942381279563      -1.63917980807941      -0.03214924484891
H        -2.73578236860165       1.46167086745108      -2.02653150890855
H        -0.98964881605863       1.39632002620718      -1.72704784281306
H         0.50745147652775       1.13396999342376      -0.09331836841452
H         0.54790039563245      -0.50341136860505      -0.76382299825447
H        -3.06478018858827       2.64239860103790       0.16399673432859
H        -1.32032869294041       2.62662549906283       0.43524977970112
H        -1.99064872703777       3.51422674077432      -0.93822865223538
H         1.04879668379863      -1.42334052412634       1.49223539704633
H         0.95329031584578       0.19931867299170       2.18617098058734
H         2.95666603490351      -0.69239649603088       0.04647123545857
H         2.85764126415277       0.93248120853286       0.74195559261301
H         4.63964966422283      -0.39403417029531       1.84825470356069
H         3.35724037636076      -0.00393923051402       3.00628900217291
H         3.45847343640400      -1.62987727765902       2.31231743480681
N        -3.09850851916905       0.60676170360344       4.61432423318629
S        -2.30776342926162      -0.63414277106095       4.02829067751061
S        -3.57686741528973       1.68498380377092       3.55632048511181
F        -0.85191496956335      -0.00566804060473       3.59885837491102
F        -4.81099559920896       0.94792471764566       2.76766487339573
O        -2.00398931159711      -1.53194524767097       5.08610287152438
O        -2.78614897773917      -1.17306450043005       2.78065181558535
O        -2.66355865847645       1.97919615164302       2.48006063596257
O        -4.19111304462981       2.76700811047516       4.24108194872814
