30
C8H13F3N2O3S optimized with DFTB in AMS.
N         0.19113356481228       0.24877057059725      -1.00153151805752
N        -1.80229680151479       0.71902145448749      -0.33968540288187
C        -1.08391570086496       0.30473473168428      -1.37820812981093
C         1.27244840393716      -0.30688416803578      -1.80994171557069
C        -3.26252017956721       0.77408388950241      -0.30632088224632
C         0.28460448016354       0.60187755882712       0.31976397260457
C        -0.97299012523625       0.90035539513512       0.73623139522753
C         1.52389590217521      -1.75398870551242      -1.39829720099603
C        -3.79940742644490      -0.36297135609617       0.55554420896259
H        -1.46628892788458       0.08933295127863      -2.36138563301005
H         0.96232921681506      -0.25296902498765      -2.85585941379012
H         2.16344182858846       0.31014641704162      -1.66256764997716
H        -3.56238888358215       1.74944372241707       0.08855946129362
H        -3.61431355478533       0.66850731437186      -1.33492308581147
H         1.22450306619092       0.61821079597830       0.84302588510888
H        -1.33917734501183       1.22761382344139       1.69340199566261
H         1.87320109535455      -1.80243150439434      -0.36755458094653
H         2.28003120670775      -2.18455034079353      -2.05277724146436
H         0.60353072553002      -2.32982272274756      -1.48675007747163
H        -3.44169795444358      -1.31757666099611       0.17366392788000
H        -4.88750108510719      -0.34972756002339       0.51731424567846
H        -3.47707457427523      -0.24929993262845       1.59020461617192
S        -2.59910710393340      -2.36430243826583      -2.30462077518012
O        -1.65608524287881      -2.15527112389887      -1.20419723300859
O        -3.25325352814462      -1.13199261673119      -2.72640130700557
O        -3.44648985116059      -3.51640316756944      -2.18191562321874
C        -1.44626022665388      -2.71411109983618      -3.71570937023728
F        -0.63003566475987      -3.72690057350972      -3.44620076163133
F        -0.67376544705335      -1.62221107905982      -3.89940615431079
F        -2.07023687837246      -2.96293296667613      -4.85422215716308
