34
C10H22ClN optimized with ADF in AMS.
N        -1.40993791215777       0.26556148315911       0.02468348801829
C        -1.74226315130099      -1.08671947114803      -0.54895484427848
C        -2.47032123605686       0.45763600668416       1.09772593186616
C        -0.03862228224436       0.32391404541540       0.66312146025837
C        -3.27396652916696      -1.15100223010305      -0.56939257301485
C        -3.74516212511326      -0.10602401697184       0.47981886203704
C        -1.55610663442020       1.34507624119025      -1.01236655469886
C         1.11042085822903       0.10059159357676      -0.29873401462068
C         2.43388159866757       0.08394217214147       0.46812936289959
C         3.63886817583977      -0.11916937351964      -0.44624953559710
C         4.95861036385844      -0.13182637746044       0.31933073098586
H        -1.31358839287402      -1.82957293292189       0.14097968986387
H        -1.27035237765941      -1.19399604598348      -1.53413257627015
H        -2.44668012938795       1.53077917800848       1.38343384880966
H        -2.13731492607125      -0.14708735597563       1.95488601860354
H        -0.04900803864416      -0.45232134796959       1.44678560017587
H        -0.00429482278074       1.33311731850623       1.13652494432157
H        -3.60799489329101      -2.16918294273948      -0.32256298217261
H        -3.66573307388789      -0.91268104788173      -1.56893276351958
H        -4.34080927374179       0.68721246979207       0.00456761665230
H        -4.37338725903174      -0.55871507010416       1.25983933729011
H        -0.85446484105998       1.14141053086715      -1.82938598179324
H        -2.58525224966868       1.32773759935997      -1.39024999876643
H        -1.33885099286237       2.30379758371719      -0.48824112391972
H         1.00033789703466      -0.85206836559628      -0.84970025868162
H         1.14924553753896       0.91550536213274      -1.04083254228959
H         2.41156349066720      -0.71999326179224       1.22799984320762
H         2.53998289975057       1.03565937990215       1.01933005918251
H         3.65602495784630       0.68561987737082      -1.20387052457374
H         3.52020537747214      -1.06863018259582      -1.00116120870865
H         5.10743475533282       0.81844195409640       0.85651380517640
H         5.81427401834669      -0.27749900853952      -0.35700967808014
H         4.97261831978343      -0.94377363720946       1.06457817868641
Cl       -0.99119485174620       3.37567113699193       1.48045797845028
