31
C9H20ClN optimized with ADF in AMS.
N         0.15659163617526      -0.07392749140429      -0.25674237496051
C        -1.08876216723007       0.38080825120852      -1.01421190822463
C        -0.15447560279739      -1.37696893625829       0.44242545134126
C        -2.30964956040059       0.50554932059822      -0.12505511944836
C        -1.36010894875799      -1.28226199854096       1.36817805866273
C         0.59383925712667       0.95352383774559       0.78265719772231
C         1.23918862317715      -0.28432720623401      -1.30813066613868
C        -2.60294075908042      -0.79740297298977       0.62035416486227
C         1.23472704726064       2.20861438002543       0.22827090732554
C         2.58029902126540      -0.72564470923276      -0.76221029753641
H        -1.25287508868107      -0.40722180604217      -1.76820464202157
H        -0.80677806679825       1.29941932757946      -1.58232538465346
H         0.74816162225126      -1.68350674158197       0.98892545228283
H        -0.34334795290744      -2.10750217479139      -0.36045048271594
H        -3.15158563039551       0.77627148639424      -0.78362208190228
H        -2.20219478066455       1.34701735598578       0.58092527547426
H        -1.13671191080767      -0.61783064792594       2.21967909511004
H        -1.52577505511521      -2.28551736416876       1.79523624347841
H        -0.30907034753326       1.20340648763683       1.35191995474760
H         1.27046175600643       0.41298975599242       1.46364890033725
H         0.82668059371994      -1.04504686663827      -1.98943652667959
H         1.27824746520511       0.66866834626968      -1.88938782220851
H        -3.44460476366198      -0.67254585046228       1.32087217153239
H        -2.90449710886559      -1.56982487066578      -0.11149934828257
H         1.25338013147626       2.96078512461086       1.03236228312130
H         2.26934994232228       2.03604514925548      -0.09759789410908
H         0.69980244146344       2.61595513885964      -0.65161570951936
H         3.26483453019034      -0.80896763627754      -1.62048565602009
H         3.02103799222443       0.00803614415389      -0.07303300623427
H         2.55402957751002      -1.70891168412613      -0.26834348994559
Cl        0.42788550312236       2.44643432762428      -3.04505061049730
