51
C13H28F2N2O4S2 optimized with ForceField in AMS.
N        -1.51717921102578      -0.00516086806760      -0.13066550698840
C        -2.51406797530220       0.41583595438898      -1.16899826773344
C        -1.79589502059340      -1.42659000446909       0.25811144799809
C        -0.16513885339396       0.05639689694012      -0.78647975030852
C        -1.58051945248647       0.87183823600067       1.09068358623231
C        -3.98112202262114       0.23020745331780      -0.74560070808993
C        -3.24961591066669      -1.68159631861298       0.70486712342664
C        -4.24474261895626      -1.22027171892843      -0.35529527623552
C         1.04340527435032      -0.26557312248622       0.12744942237397
C        -1.20452025688743       2.34932351587693       0.87341440313133
C         2.35617054088205      -0.17960745177550      -0.66243228829386
C         3.56287875345671      -0.46515921262504       0.23914514420543
C         4.87495791492605      -0.33794333307174      -0.54264245757895
C         6.07793893335355      -0.61964718406202       0.35241461522655
H        -2.37099666636988      -0.18142040605785      -2.10015917012821
H        -2.36207979165921       1.47184527209345      -1.47508365459017
H        -1.14078449603396      -1.74645177861927       1.09674852970162
H        -1.58364139212951      -2.11288112943698      -0.59416273925569
H        -0.00077281233851       1.05964891959884      -1.23954355615337
H        -0.12882821309459      -0.65286138932438      -1.64617956285205
H        -2.59349518529077       0.86909724964980       1.53678714312159
H        -0.92833707980447       0.46772734671834       1.89493661948057
H        -4.63855700333014       0.49426856499140      -1.60211318409051
H        -4.25102764749670       0.91327559799716       0.08580977939445
H        -3.46140686073968      -1.17975029093511       1.67195426121080
H        -3.38783266156142      -2.77152990233170       0.87366451821818
H        -5.27946581502385      -1.31700778124033       0.03838769836011
H        -4.15639216138151      -1.86940421231994      -1.25441703698548
H         1.10237829241698       0.45661484451888       0.96642917363646
H         0.95524365240763      -1.28846489478390       0.54512170060638
H        -0.16361476167379       2.46735410665764       0.51339082993385
H        -1.90583323662872       2.85333808282818       0.17989749832603
H        -1.27269336226722       2.88023341492624       1.84642245291460
H         2.45675368209707       0.83954697512784      -1.09670711704204
H         2.33701553853550      -0.91682102988101      -1.49527550250816
H         3.47709052360398      -1.49360449064078       0.65437611529112
H         3.56999213219777       0.25726141139095       1.08498300347020
H         4.87892683279094      -1.05610804075373      -1.39066704722585
H         4.96753999849145       0.69028422605842      -0.95530887622932
H         6.01561112675607      -1.64630871737236       0.77210592709894
H         7.01167475309291      -0.53464346716247      -0.24234012849491
H         6.11862946533644       0.11506094914388       1.18467454277972
N         3.76151225483917      -3.68890103229518      -1.22464368744936
S         5.17810578699975      -4.50095842477969      -1.31591484809978
S         2.33372111488057      -4.48588813708634      -1.21463531697710
F         5.14552493862345      -5.54693295106222      -2.62296161048243
F         2.35473515448760      -5.66680331370708      -0.02799150292129
O         6.31023785423839      -3.52655833025938      -1.47531881960641
O         5.37993309470767      -5.30114790020536      -0.06010621345006
O         2.11724024427287      -5.14305033541773      -2.54843166840067
O         1.21600350251236      -3.51889354235411      -0.94828584096743
