50
C14H15F18N2P optimized with DFTB in AMS.
H         2.87680100845782      -3.29278161107509      -1.80387547372205
H         1.13558546807104      -3.53668845192106      -1.47971054375731
H         2.35311722821492      -4.23966055254341      -0.38565465743862
C         2.11580079471855      -3.39433591072188      -1.02998419158472
H         3.15936624964582       0.03094290312351       1.89787336400577
H         4.03950659738907      -2.28792512149328       0.66281524657630
H         0.09575809317608      -1.47463647549586      -0.57585543381991
N         2.09087036451630      -2.18476868214651      -0.22244336319384
C         1.05054251942623      -1.36682643812771      -0.09092213654430
N         1.40206653518891      -0.38975420947808       0.74505681493550
C         2.67784232813002      -0.61515856837970       1.18517633740557
C         3.11373514771003      -1.74710380068366       0.57150720188322
C         0.52573677481216       0.69053911286987       1.18851027596752
H         1.15702428946520       1.54064524323725       1.45996862017777
H        -0.10958660944356       0.97406657004449       0.34420310127289
C        -0.32275381880904       0.23556961133692       2.37981024428400
H         0.33717017024886      -0.01774119842022       3.21224780787478
H        -0.87319272333641      -0.66627862827375       2.10128148582281
C        -1.29676007271766       1.33682107486847       2.80464574642407
H        -0.73571628906150       2.24065359589503       3.06600047012895
H        -1.95894613477707       1.58358792270724       1.96736914254603
C        -2.13027279662328       0.88608340277333       4.00243799348483
H        -1.48642100756623       0.67750269230978       4.85710762767275
H        -2.68819999016192      -0.01859823240023       3.75970665383116
H        -2.83626147477617       1.66887633514685       4.27930543353486
P         1.66788489609245      -4.85383272171262       3.02434922453335
F         1.81343732289108      -6.28109660812496       2.18505294297153
F         0.88256470527774      -5.57943153613647       4.29526357264076
F         2.48436542275402      -4.03559821497010       1.75165269886991
C         3.39595723495830      -5.33988476148579       3.80164170324700
C        -0.07902078070999      -4.63048608421255       2.05269708473704
C         1.46346775783915      -3.01894529101430       3.87627394272638
C         4.64347441907368      -5.32447477018813       2.87400602745331
C        -1.38453038323290      -4.13275525497054       2.75173388691912
C         2.56785371520815      -2.09881953128412       4.46755739730842
F         3.30300334552847      -6.58554065270203       4.28869569036500
F         3.68163047277742      -4.53105734910521       4.84152144276625
F        -0.41555850970824      -5.82562348445724       1.54486182117057
F         0.07575201916765      -3.80389175109114       0.98069615538806
F         0.47671481849766      -3.04214428059252       4.78721471230039
F         0.99495939122972      -2.27964631110288       2.82418472448803
F         5.69831121981827      -5.83769344786331       3.50501783545975
F         4.96393102722192      -4.07858698128967       2.50642223051551
F         4.44554974196939      -6.03249035636149       1.76569152277325
F        -2.43888330919171      -4.53068286733131       2.03235820281986
F        -1.53280590699324      -4.60313816827535       3.97961463415200
F        -1.44197433518806      -2.79709687038548       2.80177507387786
F         2.85326906473112      -2.36329265520449       5.72884205731510
F         2.15061151298529      -0.81812140025491       4.41312507169096
F         3.68680144870446      -2.15422049873569       3.73998232544267
