52
C14H30F6NP optimized with DFTB in AMS.
N         0.20767199134616       1.40689881976631       0.09591650964908
C         0.86048404459991       2.25338471516553       1.15081305867510
C        -0.44966030769275       2.41999092226100      -0.78895132331707
C         1.22621392485455       0.62567785412835      -0.67663978481934
C        -0.81745749017282       0.51535906526747       0.74309048268491
C        -0.13031926969428       3.37867075379060       1.42744237549717
C        -0.98803311576880       3.49137374770722       0.15739090717183
C         1.97919130803688      -0.40176312382972       0.16592505877403
C        -1.53774424925481      -0.44388183429480      -0.19728795681443
C         3.02341030569414      -1.11514565037378      -0.69865752930189
C        -2.59948709833212      -1.20200192856044       0.61182412670713
C         3.78794447526200      -2.15414881746760       0.12832316356287
C        -3.30029669021036      -2.25779763828530      -0.24681900433634
C         4.82902095865744      -2.88168472142107      -0.71952498151573
C        -4.34635525477629      -3.01950173033219       0.56505046707755
H         1.79359148894931       2.63864755606806       0.73320532156275
H         1.06715142530406       1.64817449854148       2.03075033765601
H        -1.22040793208312       1.94197441697422      -1.39235570038107
H         0.31806343553488       2.83126171667997      -1.44881534821068
H         1.92971663679886       1.35194212305040      -1.09449003812846
H         0.70428713587533       0.14019909181264      -1.50506741377846
H        -1.53708369770106       1.16931201641743       1.23699197769166
H        -0.29939949049948      -0.05150292455645       1.51377397677113
H         0.40359693011782       4.30675192535365       1.63681672581743
H        -0.74616574843031       3.13421956835198       2.29441621985352
H        -2.04166848074967       3.31530033788038       0.38225065938616
H        -0.89988205681289       4.47592505425809      -0.30521949061642
H         1.28849285232606      -1.13990682773929       0.57755745076350
H         2.47463953091119       0.09219108720705       1.00398493175112
H        -0.83392640718033      -1.16408927348570      -0.62378453183532
H        -2.01876630062150       0.08986626716129      -1.02316570903350
H         3.72559817535757      -0.38022988643887      -1.10794494227587
H         2.52614024835897      -1.60821804787867      -1.54152270103019
H        -3.33692898331930      -0.49025339973481       0.99667738477197
H        -2.11997191736334      -1.68214763028919       1.46974355253970
H         3.07996812066704      -2.87992160760186       0.54069074703949
H         4.28282437575244      -1.65535196171878       0.96749012827563
H        -2.55714228744839      -2.96230729651425      -0.63601584376538
H        -3.78242587306937      -1.77335445993969      -1.10352755573820
H         5.36498301061645      -3.60679458090508      -0.10733289972689
H         4.34987807162372      -3.41018099235788      -1.54500217372775
H         5.55012625653728      -2.17435439219779      -1.13186123049211
H        -4.83384501011870      -3.76698381065334      -0.06112066179496
H        -3.87793735775134      -3.52439686003546       1.41040757557331
H        -5.10567699082595      -2.33573238268676       0.94661334852381
P         0.13305145247932      -0.13739536547169       4.25004229157133
F         1.08486275289220       0.88794673621889       5.08964352105351
F         0.85264334517569      -1.43431678685440       4.91239879594143
F        -1.01636432442932      -0.10170007433936       5.39623305782125
F        -0.81337670963684      -1.12570505496677       3.30191412227179
F        -0.58443630393325       1.18982525961269       3.48885720283526
F         1.28167029114712      -0.14351785714373       3.00460913786861
