70
C20H30F18NP optimized with DFTB in AMS.
N         0.99565919612321       1.50665231057681      -0.08846070099466
C         1.58289310051700       2.31856506443591       1.03579398597322
C         0.71012259808598       2.50177027209012      -1.19388776547186
C         1.98426020279954       0.48238191620588      -0.57231067871914
C        -0.27898815577573       0.87495651480279       0.38847003055968
C         0.95521821277732       3.69446595228836       0.90091798119321
C         0.91482677304036       3.89937209915095      -0.61032366683663
C         2.36134972977351      -0.57292439319806       0.46237864515968
C        -0.93953609046470      -0.06225447566524      -0.62185101835454
C         3.53103477090778      -1.39883452724732      -0.08963100184074
C        -2.32300714752107      -0.47659010603467      -0.10636362612158
C         3.97444661240330      -2.46995815167600       0.91055526919087
C        -3.00441443653508      -1.44255867405707      -1.08100292814066
C         5.12625405573198      -3.30005776716938       0.34745615667697
C        -4.38400642245986      -1.85818907057576      -0.57467313828835
H         2.65744893449277       2.38065233455922       0.87042346108920
H         1.38241200100175       1.83069907601534       1.98897306448120
H        -0.31145202521948       2.35312133499928      -1.54337311208451
H         1.39543883105816       2.31267923361694      -2.01741205766073
H         2.87706830577249       1.03350085153125      -0.86440030221639
H         1.56256768551742       0.01639532933933      -1.46475904479141
H        -0.95891965200814       1.69260233173049       0.64207351345716
H        -0.04882135192870       0.32353208925865       1.30318340377037
H         1.56549664721834       4.44739469903283       1.40023744072425
H        -0.05026757049102       3.71473039774970       1.33042238392772
H         0.11112709120809       4.57176226421186      -0.91260741686531
H         1.86463436426626       4.30503991864807      -0.96383469660141
H         1.51435588042328      -1.23144879501260       0.67736355300607
H         2.66692559003435      -0.09399834232434       1.39589941061512
H        -0.32852567115939      -0.95718407402200      -0.76237448611035
H        -1.04756688880826       0.42785750829402      -1.59281248484965
H         4.37121839541668      -0.73190879945603      -0.30270057846009
H         3.22871541244360      -1.87208304153886      -1.02949404146627
H        -2.94580692864936       0.41499942287098       0.02325112392975
H        -2.21700767825532      -0.95622966661624       0.87249845355746
H         3.12880608961060      -3.12649851582352       1.14507092370091
H         4.29204356761246      -1.98722501384066       1.84069446267715
H        -2.37797116700268      -2.33166632263770      -1.20738477236110
H        -3.10347610681861      -0.96062300728283      -2.05920313465525
H         5.43593290251727      -4.05061187692505       1.07478273710841
H         4.81915955369766      -3.80769665300120      -0.56787434794630
H         5.98010399630874      -2.66112651844091       0.12042501934075
H        -4.84798006824384      -2.54423791851473      -1.28295127090207
H        -4.30239549751367      -2.35787240018694       0.39139395684790
H        -5.02890990021827      -0.98585064379172      -0.46166383034027
P         5.21941031567434       2.83285145003249      -1.86396412325899
F         3.78343897956192       2.94952148908232      -0.91499932276059
F         5.25016968239569       4.48457036589385      -2.02999399256522
F         5.15266597733876       1.13225608329404      -1.71166565354595
C         6.08493415659241       2.94136953940179      -0.09180666601864
C         3.85478106483498       2.70774544274727      -3.32718961512431
C         6.89141123636341       2.72186004394195      -2.92850551274527
C         5.87778748935352       1.76386428901731       0.90449318857985
C         4.03306833713057       2.65032240145023      -4.86966873046383
C         7.66582025398330       1.37957154024914      -2.98124015349396
F         5.60525715475214       4.03323281450691       0.53362435621900
F         7.41839942440318       3.08573095374013      -0.17496698406114
F         3.01353102321821       3.74796927671075      -3.12984338457240
F         3.12292269453800       1.59100502700835      -3.05834822563005
F         7.74900380386387       3.67146926108454      -2.52538725001213
F         6.56874339490198       3.02212890157996      -4.20250533952221
F         6.33126724109306       2.10038996607780       2.11168518781324
F         6.51072735191063       0.66353126861852       0.52261754675985
F         4.57767993571765       1.44880933266998       1.05509113723240
F         2.82019029097408       2.47180011061112      -5.41393003544666
F         4.52577934848081       3.77466467424301      -5.36850258109767
F         4.78809027807063       1.62532843183765      -5.24826709813041
F         7.94153325252851       0.93623469824400      -1.75679922541131
F         8.81575832916792       1.51808560774982      -3.63757147018804
F         6.94309394276362       0.45273267793710      -3.60732536256331
