57
C15H28F6N2O4S2 optimized with ADF in AMS.
N        -0.20771269335888       0.92617714005794      -0.57348863841364
C        -0.87595762670488       1.03509474298823      -1.93879066738226
C        -1.14983773255848       1.48684192140452       0.47055091314626
C         1.05696588799071       1.77224199575155      -0.63774856907789
C         0.13026472406084      -0.51764216384645      -0.24189424495574
C        -2.23637588801620       0.36788430684084      -1.99377775266627
C        -2.52248615426081       0.82943920068226       0.45449546185209
C        -3.17425654526751       0.92609186495427      -0.92461961370539
C         1.88931092814745       1.80123547478819       0.63148010110975
C         1.21476703305365      -1.13252760776563      -1.10756266275339
C         3.17725358016647       2.59801268016825       0.39490380807177
C         1.27770054711081      -2.64683724751764      -0.89290311713401
C         4.02025723846968       2.70495597463176       1.66119025330078
C         2.33230921165263      -3.29046449121855      -1.79020852817276
H        -0.17293597695459       0.63286446067020      -2.67768051630242
H        -0.96786098239070       2.11536753727552      -2.12558808945491
H        -1.23635309209575       2.56205965516469       0.24327309160872
H        -0.65808432026067       1.37485945008626       1.44587098342098
H         0.72552597074079       2.78562772840906      -0.91106434674198
H         1.62912701463186       1.39429041222498      -1.49478884947538
H        -0.80135750777441      -1.08649722302890      -0.34902432409014
H         0.40468049993902      -0.53041140721655       0.82446364379498
H        -2.14029501340563      -0.72716045289626      -1.90249916369194
H        -2.63504286490636       0.54900241894214      -3.00540509481870
H        -3.13576889025487       1.33917785586726       1.21642962785131
H        -2.44724779570321      -0.22370166094869       0.77386552287952
H        -3.39032691462454       1.98688222199905      -1.15040638098790
H        -4.13857913750511       0.39396652248243      -0.93097702495712
H         2.16232394977727       0.77957029339222       0.94763280008202
H         1.33200570952759       2.26487650307699       1.46449756713357
H         2.19779395712378      -0.69021102831864      -0.87778222559161
H         1.02043726081980      -0.94437156187288      -2.17439620303186
H         2.92373216065388       3.60431906930320       0.02053846885201
H         3.75409461877787       2.12080205778750      -0.41475404593546
H         0.28774761908013      -3.08363076662510      -1.11955295307004
H         1.48874329507018      -2.87289648899033       0.16904907894808
H         4.30021227576449       1.70832236298532       2.03967838382034
H         3.47185018743049       3.22728373137397       2.46235202051751
H         4.94865589492385       3.26404441064894       1.47092269043512
H         3.33397417218980      -2.88588429229438      -1.57553732238180
H         2.11043275059778      -3.08599773977997      -2.84847444387740
H         2.36687888205005      -4.38028417952442      -1.64539750966283
N         1.83613616710956       1.11669706955053      -3.86411522718779
S         1.50750239344508       0.05336024629920      -5.03980473951203
S         2.46771172142350       2.58220860573484      -4.13609049625975
C         3.13931052763524      -0.83023443378857      -5.39791434350547
C         1.02317580592650       3.65928160892181      -4.75486524347341
O         0.69450240004755      -0.98643780189944      -4.39920634307557
O         1.09925959452571       0.61490910206758      -6.31847615259495
O         3.45969515420667       2.67333927985381      -5.19459856889874
O         2.73552071740753       3.14667064159379      -2.81337052357743
F         2.87173342204470      -1.96467449864220      -6.09207205733623
F         3.76107817119464      -1.17386524712831      -4.23979567063400
F         3.96875422120892      -0.06375693197078      -6.12632255391973
F         1.28879517913084       4.95528525052918      -4.45644672870143
F        -0.14802087924439       3.32381402230811      -4.12883222416632
F         0.83892799142969       3.55200358455733      -6.07974050624913
