28
C8H18ClN optimized with ADF in AMS.
N         0.37861670840290       0.21024091875986       0.08302475593254
C        -0.58564342240038       1.28215086330512      -0.41565430448851
C        -0.11219053826140      -1.15944357565469      -0.36622299427245
C        -2.03257977036591       1.01231863551877      -0.05650812097494
C        -1.55759533061078      -1.42610158184018       0.00416840191491
C         1.72241003031464       0.50019216061976      -0.56001640546662
C        -2.48385468504678      -0.35514691459702      -0.56551690606795
C         0.48990408178719       0.27115846983391       1.58084559431441
C         2.84390262075905      -0.44007385360284      -0.16727417745194
H        -0.44402841657217       1.31225273074237      -1.51041292371985
H        -0.22387695401931       2.23084162444168       0.01167832157441
H         0.56035233840235      -1.89595640167160       0.09403181467844
H         0.03403681563653      -1.17663040171737      -1.46102439873198
H        -2.63119963074005       1.82448119357427      -0.50338599880291
H        -2.18629092499736       1.03443662599972       1.04378313213121
H        -1.69135803621829      -1.44277856160702       1.10760342240738
H        -1.80943884257698      -2.42651602901760      -0.38726810816736
H         1.55277422939152       0.47362286727075      -1.64808591677687
H         1.96385995358119       1.53767593254731      -0.27908893169542
H        -3.51148756654149      -0.54624769618008      -0.21989085330964
H        -2.48202164151967      -0.38367835018223      -1.67386067994129
H        -0.51556011951212       0.16576219087748       2.07684714466308
H         1.13025204925235      -0.55503297611837       1.91085818073828
H         0.95039765699713       1.23494922935687       1.83962655580268
H         3.75396696490357      -0.12984633567522      -0.70211862835865
H         3.06117131027035      -0.39822676435937       0.90829725205489
H         2.63598061552235      -1.48078599466330      -0.45144113194526
Cl       -2.33221482593843      -0.21188255306099       3.11363747485939
