43
C11H24F6NP optimized with ADF in AMS.
N         1.77266840426913       0.35128287411376       0.03804871624423
C         1.93143258720612      -0.91191003569951       0.86825670811233
C         2.96657603358958       0.28142358717629      -0.88938350633342
C         0.47797944279911       0.36056426895124      -0.74638060102759
C         3.42769399250787      -0.99188082800061       1.14870066092251
C         4.11485620431194      -0.24108015364047      -0.02292615645616
C         1.87731260789317       1.57059964218156       0.90672612662624
C        -0.76986926409077       0.32943696636505       0.11648092543153
C        -2.02716744507887       0.18722464182204      -0.74280018682872
C        -3.28818577411616       0.13365895074278       0.11961447147014
C        -4.57043683257730      -0.00515021702672      -0.69683775318471
C        -5.82021037506404      -0.05511682937142       0.17929692404422
H         1.58757606704460      -1.73509777779089       0.22252098785048
H         1.30776165708828      -0.84910128692121       1.76915747002964
H         3.13289553794446       1.27008020209234      -1.33743241645946
H         2.70234046232816      -0.43356164890706      -1.68246807844559
H         0.52276640811820      -0.52386636230831      -1.40271336504293
H         0.51048460627248       1.26142587112080      -1.38154779535706
H         3.74453586700336      -2.04160360131832       1.21788370304302
H         3.64890752719422      -0.52118222049842       2.11702729570521
H         4.74084185721626       0.58333296453736       0.34677157247158
H         4.76416723346994      -0.89772473625000      -0.61948394052641
H         1.09020268135063       1.54634978562254       1.66980479278859
H         2.84899590019666       1.56092352188848       1.41079020892903
H         1.79073775686856       2.45354604502072       0.26039301713363
H        -0.72043820197813      -0.50558073321581       0.83254542956472
H        -0.84550248170660       1.24150120187084       0.72701542485872
H        -1.96248957113472      -0.73297927931474      -1.35466688211431
H        -2.10049979875799       1.03404809339466      -1.45182855073456
H        -3.34118540575554       1.04579118920216       0.74168727045234
H        -3.20528580340240      -0.71044251074503       0.82873438895319
H        -4.64594829255780       0.84240026803033      -1.40303765910297
H        -4.51307671395121      -0.92059837531303      -1.31425606300052
H        -5.90827458551212       0.85763376065787       0.78969750060478
H        -6.73509564220179      -0.14743829774334      -0.42646630209640
H        -5.78233609097381      -0.91273976016132       0.86962660138701
P         0.12986177482836       0.29778883701804       4.33162857415230
F        -0.18661353170125      -0.90593858906702       3.19428150574204
F        -1.42174227522577       0.21886804293461       4.84002160660620
F         0.59942716892472      -0.84348729002039       5.40449046503697
F         0.47406537803108       1.50446632489126       5.37971622659473
F         1.70161630172486       0.37312608225375       3.72782872276503
F        -0.31274537299548       1.43572093972516       3.17116788729037
