47
C15H25F3N2O2 optimized with ADF in AMS.
N         2.57555228608262       0.99214135716711       0.43578238990340
N         0.72927712048971       2.11217918182812       0.20304608441019
C         3.83497086097911       0.33288727605028       0.09081437702200
C        -0.34811487572499       2.85069767543794      -0.46170390342580
C         3.91167882679170      -1.07127354139001       0.67468017183054
C        -1.32808310415048       1.91758988309372      -1.16533155560119
C         2.79790370772511      -1.98428877017162       0.16805872047341
C        -1.98888139444652       0.91357779296430      -0.22441459819991
C         1.68590938425413       1.43915037844227      -0.45744965924714
C         2.22903718697581       1.46223789859666       1.68783411382177
C         1.06882945421984       2.16050260352915       1.54328222990435
C         2.82704348413534      -3.38212799037685       0.78038041435231
C        -2.94681282231904      -0.04067516227777      -0.93563623548325
C         1.69155905025037      -4.26306542549019       0.26604755898001
C        -3.57251554946319      -1.05437137228808       0.01899660146074
H         4.63532284998212       1.01220079670287       0.42396598593378
H         3.87972300626803       0.31109618669882      -1.00826449690877
H         0.14054392817056       3.55111987926541      -1.15883754608293
H        -0.85769786999971       3.43177449293474       0.32097439214743
H         3.88030320062081      -1.01893028866265       1.77846156842083
H         4.89889511175802      -1.49096210905408       0.41309117594301
H        -2.09321264364077       2.54591397825458      -1.65463357821778
H        -0.80612211322696       1.38332645329404      -1.97985535561646
H         2.86719851362097      -2.06533546388601      -0.93384465830072
H         1.81818458763663      -1.51932201774145       0.38578305779408
H        -2.53714701372184       1.45873893722186       0.56784882781044
H        -1.20775268850181       0.32276599160348       0.28924590950750
H         1.69643545248039       1.22302214908919      -1.51404054803574
H         2.85241349534503       1.29452796554906       2.55597903799946
H         0.46869701052640       2.70010963520926       2.26449115993887
H         2.76442651460555      -3.29603921968580       1.88068306242295
H         3.80008801441161      -3.85808975265945       0.56079017405431
H        -3.74076480600173       0.54332058010638      -1.43584963109897
H        -2.40052158815473      -0.57105705794341      -1.73720218556333
H         1.75301683518489      -4.38395582844912      -0.82763879148340
H         0.71218425929814      -3.81334033585846       0.49767226045526
H         1.71786103092062      -5.26575211134034       0.71854317213776
H        -4.14121628698809      -0.54576905669891       0.81423882015262
H        -2.79535201491794      -1.66705526909304       0.50410787143341
H        -4.26063957257473      -1.73461778947537      -0.50462088286465
C         3.59240954479128       3.82636387184689      -0.90436686264183
O         4.24058990188140       3.34246817470204       0.04286780454227
O         2.67541792199490       3.33579108404173      -1.62966626630705
C         3.92512368832984       5.30346405596617      -1.29997370110009
F         4.28015133214331       5.40331104579061      -2.61995995613550
F         4.93897834675148       5.84952566662754      -0.57411775427391
F         2.82564280180681       6.11393099682839      -1.11890066986429
