31
C7H13F2N3O4S2 optimized with DFTB in AMS.
N        -0.65189147034922       0.26572913965324      -0.78111167802174
N        -2.22143388790526       0.68493559448859       0.62761771423457
C        -1.97243870563333       0.31822094265388      -0.62699217075831
C         0.04590296857393      -0.17823756042327      -1.98585536457744
C        -3.54803753668199       0.76259539274393       1.23489019100779
C        -0.04557180219096       0.58787367264108       0.40375712243994
C        -1.03756858956438       0.85031276528694       1.29403080647291
C         0.61903873487748      -1.57440213075779      -1.76891523429926
C        -3.89465343598759      -0.57610038121248       1.87758619884430
H        -2.71399966376394       0.10150296820369      -1.37890799544397
H        -0.67826194425134      -0.18318999084655      -2.80262052137110
H         0.83877348229336       0.54327605238080      -2.20390402612097
H        -3.53240967716383       1.56702087063315       1.97513811696399
H        -4.26190939415004       1.00546062995792       0.44562795453711
H         1.02452739833651       0.61007058549529       0.51300223706743
H        -0.99799819787875       1.14357437239203       2.32848427465072
H         1.35288340741306      -1.56857602131729      -0.96351744776611
H         1.10150427276154      -1.90365164853866      -2.68781262963265
H        -0.17726767402008      -2.27300518691248      -1.51940802356823
H        -3.86861635398498      -1.36377030857365       1.12695403660193
H        -4.89716470697038      -0.51848658212734       2.29811574258349
H        -3.18627458475012      -0.81496870736897       2.67039432735531
N        -4.46561483160693      -2.97127474691109      -1.90631387125585
S        -2.91057856633175      -2.75579267055538      -2.01405723664854
S        -5.34849029159816      -1.64185916217493      -1.87364950689717
F        -2.47758567618863      -2.26218735362787      -0.48059118105384
F        -5.31364488540033      -1.12333520328544      -3.40113505625180
O        -2.25945318078360      -4.01364130729035      -2.14237845284148
O        -2.44515755366419      -1.65314349990396      -2.81364875205807
O        -4.79322267333001      -0.53681710444297      -1.13234765683760
O        -6.70072186000618      -2.00545829656004      -1.63432144375535
