39
C11H14F6N2O4S2 optimized with DFTB in AMS.
N         1.98488516305168       0.42069785001128      -0.31582778785405
C        -0.28347489115625       0.86175225948444      -1.13680624239831
C         0.57545638468458       0.03254777897451      -0.17691414974608
C        -1.75462770030582       0.45163497494922      -1.04313103143792
C        -2.60035225061607       1.27344270658289      -2.01390769646883
C         2.44125945868903       1.48472917433695       0.36365352523394
C         2.75679167584015      -0.21361016684384      -1.21369500291398
C         3.73925669677909       1.91935665144143       0.19261669480745
C         4.06277465653113       0.17920973860492      -1.41227121493733
C         4.57011472046152       1.25906030987111      -0.70127506405055
H         0.08264593358129       0.71663388411876      -2.15623638118553
H        -0.17283978825048       1.92028995392895      -0.88847170965225
H         0.49330496656669      -1.03365180347599      -0.40202306214404
H         0.27688312498440       0.20305186230835       0.86060844530467
H        -1.85314681800180      -0.61361563197935      -1.27878950640269
H        -2.11342332642407       0.60423676138686      -0.01941955304605
H        -3.64587384305831       0.97483385322604      -1.94018853606153
H        -2.52163023622464       2.33544142463413      -1.78150997349987
H        -2.26222993347987       1.11742162056639      -3.03834553557644
H         1.74625355092081       1.98208360193569       1.02791513983114
H         2.30468662987561      -1.01822989910726      -1.77945552904675
H         4.07617200178917       2.79233865998917       0.73622148160334
H         4.65971513131398      -0.33461647025308      -2.15447133399351
H         5.58508669028004       1.59731603231356      -0.86756314680942
N         2.03635919703168       2.21093915441832      -2.53606743019039
S         2.32528963661267       1.76295369455133      -4.04796204656718
S         1.89156871674422       3.76344411031310      -2.16419857556104
C         4.05607491897621       2.31477611283857      -4.51751007570574
C         0.37387323046441       4.46748477490331      -3.01326949287644
O         2.44317331326359       0.32016982493143      -3.98079558865703
O         1.44896943029414       2.33493234713719      -5.03588723551633
O         3.00194740972241       4.58840401040378      -2.56917939816242
O         1.52439250940766       3.76596688371333      -0.75894253025512
F         4.53421474167334       1.49127511495095      -5.43667724994973
F         4.84276134437126       2.23405220586620      -3.44155019248343
F         4.07941104860696       3.54307062138837      -4.98176604533612
F        -0.10712499020831       5.45151987175625      -2.27104918832535
F        -0.55112342706658       3.51829663048539      -3.10384187693103
F         0.65480546827442       4.92734651753737      -4.21153550013808
