28
C10H15NO2 optimized with DFTB in AMS.
N         0.27620463153675      -0.55090038349940       0.08151795128945
C         1.44221186933592      -0.19207760137497      -0.71762092868455
C         2.63481931877908       0.23089755789676       0.15209035023897
C         3.75202008857295       0.81644086440520      -0.70867114003759
C        -0.51741597118749       0.44182659326393       0.59263857912704
C         0.17345816443323      -1.90461303874431       0.54770199710228
C        -1.64636366989908       0.16782744786224       1.28136640178705
C        -1.16765948587334      -2.19017354713376       1.14082860056072
C        -1.99598524438873      -1.20217365160950       1.51370076870082
H         1.71565454723781      -1.05264565054310      -1.33753831391019
H         1.15690338613143       0.63174169093706      -1.38174818793551
H         3.01287592591530      -0.63677449941034       0.69846393706546
H         2.30148709277348       0.97371606938946       0.88263748075915
H         4.09911523027179       0.08261245023821      -1.43772784915754
H         4.59447488245625       1.10452639809553      -0.07990187764870
H         3.40074725888782       1.69982051657178      -1.24410435306352
H        -0.22162522969505       1.45298134718859       0.33486422544480
H         0.41599839387889      -2.59437194486530      -0.27529848234297
H        -2.28309026314798       0.96343204614427       1.64130808295412
H        -1.40039691278764      -3.23586425845781       1.29960645861083
H        -2.95305243248486      -1.42653144532825       1.97160780850966
C         2.47809282277476      -2.18425261778976       3.50692483411864
C         1.34061175654488      -1.60259454084386       2.69085259265863
O         0.64530169439103      -0.70022922713994       3.06434092803250
O         1.25457409079701      -2.22557569382795       1.51523273776262
H         2.44253182609777      -1.78801433210162       4.51867551745127
H         2.40561360405600      -3.26976683694480       3.52235628786942
H         3.42215656459203      -1.90698568357836       3.03948324673713
