34
C10H21NO2 optimized with ForceField in AMS.
N        -0.36685467233156       0.36026232762202       0.03683694106733
C        -1.40854259649918       0.59895564911881      -0.99662660235310
C        -0.82435706719925      -0.84555911109557       0.78794160697040
C        -2.68793338558652      -0.04774835319034      -0.50792447385148
C        -2.20420300089226      -1.24183845595174       0.27327829290532
C         0.94946088522179       0.13135373137426      -0.63338770868285
C        -0.30380766923677       1.54276333648912       0.93615880658349
C         2.14150543225396      -0.02955139159680       0.33848622877562
C         3.37880720527855      -0.54419669315674      -0.39348979325903
H        -1.14370768462551       0.11683299000100      -1.96738191401151
H        -1.57192163214119       1.68059174617046      -1.20938024947790
H        -0.89126866905344      -0.65855108932703       1.88494490631724
H        -0.14158656070446      -1.71539174541874       0.65966444520366
H        -3.34902133105251      -0.34646455560773      -1.35045339418121
H        -3.23299535557899       0.64981213910860       0.16559015533686
H        -2.90028720957724      -1.49422105040102       1.10264401630017
H        -2.11336345127226      -2.11746095664062      -0.40840098838444
H         1.17792701843515       0.98053593690970      -1.31819090544812
H         0.88757351810666      -0.78123169201693      -1.27116838554348
H         0.09284465364697       2.43197050670347       0.39683370851888
H        -1.31246470112845       1.79971545917357       1.33009932523403
H         0.34676622051627       1.35012725182502       1.81659953753327
H         2.39479559809146       0.95304976495567       0.79007677784611
H         1.89714191406680      -0.73766731798746       1.15737637905785
H         4.22872579807835      -0.61772246151390       0.31728749456405
H         3.18458401894181      -1.55222590924107      -0.81809527771026
H         3.65900240860217       0.15180898431912      -1.21255408513406
C         4.27081001150438       0.88473770449955      -5.57712713122098
C         4.26243671418781      -0.45297019578993      -4.90680148260580
O         3.73795958549631      -1.40703106837301      -5.45791614701802
O         4.78041405287642      -0.59566143059978      -3.81093773023629
H         4.83480442667370       0.81990010325997      -6.53143613991762
H         3.22851754981199       1.20255581370251      -5.79044367572160
H         4.75162675758904       1.64670333327556      -4.92681407665656
