40
C12H26ClN optimized with ForceField in AMS.
N        -1.89035521602834       0.12066563523238      -0.08936121271466
C        -2.08730298125884      -1.13557635077904      -0.87547233592086
C        -3.02799732500575       0.14941893561415       0.88130079038980
C        -0.59498625189976       0.06413140277086       0.66434807873629
C        -3.47071983143216      -1.67355499575832      -0.56759166043117
C        -3.72730211907538      -1.19507459820525       0.83247771603716
C        -1.96624581232512       1.29978868672778      -1.01249260256684
C         0.66980869666367       0.04015769292584      -0.22808557385954
C        -1.76604601199253       2.66379631701279      -0.32914345629810
C         1.93152062261358      -0.14844021758742       0.62408798325319
C         3.19145302532126      -0.19968347574525      -0.24906478971709
C         4.45178444965734      -0.32546506398534       0.61492652446508
C         5.71037319162513      -0.38898115983404      -0.24525116363921
H        -1.36316073391283      -1.93131027122409      -0.58495436482601
H        -1.97415839628338      -0.99066177543846      -1.97395347165357
H        -3.79128016922049       0.91559271712729       0.61366771924669
H        -2.71131910277677       0.37177771487505       1.92592036967420
H        -0.58338895263670      -0.84287184658089       1.31312535615470
H        -0.51299039469085       0.92540626756002       1.36392580876719
H        -3.51164647920870      -2.78252434586970      -0.63685638404162
H        -4.21396074877959      -1.22528268420110      -1.26361391394923
H        -4.81547040036246      -1.10644823840552       1.04343937328355
H        -3.25808183375290      -1.89181798974751       1.56203695272690
H        -1.21884443434153       1.21161343207711      -1.83080595511870
H        -2.95778314245144       1.31853879216572      -1.52088116336594
H         0.60889674847764      -0.78372789055438      -0.96997070540838
H         0.76728835439029       0.99966472299193      -0.77671860102994
H        -1.93694585353451       3.46977957348550      -1.07370173618258
H        -2.48407247210793       2.81207061577689       0.50150588388296
H        -0.73071833117195       2.77817271560077       0.05066685907589
H         1.84990196207258      -1.09565367228064       1.20156823674828
H         2.01413030846753       0.69803494186290       1.34156181813102
H         3.25694642268936       0.72774587220278      -0.86033596764937
H         3.12613136769328      -1.07267083099300      -0.93591758579194
H         4.52737704782378       0.55074053415961       1.29556149546467
H         4.39254624142085      -1.24788150508072       1.23336438755277
H         5.80377604160156       0.53020967046691      -0.86233378894352
H         6.60353653416900      -0.46815846766606       0.41001264710943
H         5.67863837979219      -1.27774449422913      -0.91111436035059
Cl       -2.32072422702913       3.37803560892961       3.49670332965911
