31
C9H20ClN optimized with ForceField in AMS.
C         2.68454748638327       0.31717513893479       1.54995567169435
C         1.65195540784478       1.26175696216111       0.94902768165791
H         1.43168977607059      -0.83064745865032      -0.92983904795178
H         0.40783211743122      -1.70478693481164       0.25918356118654
H         3.16956459668013      -1.48584032390855       0.42134677949328
H         2.08618205741052      -1.74312146046098       1.84961109221530
H         2.60973332377253       0.32479078471211       2.65980025995980
H         3.71543902384744       0.61230758378703       1.25533704863120
H         1.36884602254506       2.05897067909094       1.67425387667536
H         2.12985258843098       1.76724161959987       0.07626697742552
H        -1.20785304743261      -0.49520614302428       1.46050237792775
C        -0.42777683142592       0.26564270732703       1.67703618473118
H         0.11904350382839      -0.09083562000908       2.57779939985512
H        -0.93098812978999       1.22274462222292       1.93835213090177
C        -0.19262891727393       1.13910485612985      -0.62396082663424
H        -0.29949023740196       2.22212209658964      -0.38229455299380
H         0.44239417421524       1.10502319233651      -1.53844725108081
H        -2.31099253261195       0.74317515918268      -0.13402361428269
H        -3.02084654771331      -2.09973474516723      -2.61237157159943
C        -1.66421873511396      -0.77322621025656      -1.56653825757556
H        -0.85638844624347      -0.91173947791434      -2.31695711199779
H        -1.53580299006502      -1.51113877506067      -0.75161896374383
C        -3.00924630737536      -1.05691413253516      -2.23067112807560
H        -3.17417297876471      -0.36601043762830      -3.08458707452978
N         0.48838287807907       0.44880121478529       0.52014180094302
C         1.09844704673778      -0.84497158173009       0.13320266790108
C         2.32970969244839      -1.05562917799632       1.00933201970853
H        -3.83486961898163      -0.93792582858310      -1.49650560337302
C        -1.61615810810387       0.64970895938858      -0.99472444980458
H        -2.00091393463527       1.34919811073447      -1.76969628849982
Cl        3.36337840730756       3.48405967005382       3.68960306793500
