34
C10H22ClN optimized with ForceField in AMS.
N        -0.10140981365145       0.02318328098892      -0.08814824741880
C        -1.00491865801953       0.53542227281800      -1.16943544040463
C        -0.61855423747953      -1.30323689457763       0.38320185575920
C         1.24814760450882      -0.18464691030022      -0.71912453569778
C        -2.48417382837700       0.63298360865003      -0.75916645486642
C        -2.09939119202593      -1.28632406060103       0.81437551268816
C        -0.02635127972686       0.97541586176023       1.07388103825949
C        -2.99760843716701      -0.72126328591697      -0.28173208554910
C         2.37628159975440      -0.64078571556893       0.23996709694036
C         0.58488116765522       2.35549077684016       0.76885744272428
C         3.68257719560350      -0.85928809608588      -0.51992467541087
H        -0.96067768042537      -0.14041350819359      -2.05556227531253
H        -0.67247957806615       1.52643954658078      -1.54228361996124
H        -0.03604888456026      -1.67028252488245       1.25538964035692
H        -0.51343456393441      -2.06986891539367      -0.41870520964895
H         1.58314821849829       0.74420302224006      -1.23265576434707
H         1.17252146876692      -0.94610091314121      -1.52998932112436
H        -3.08183870873875       0.94891194167515      -1.64150762408336
H        -2.63685285046037       1.40598147909754       0.02173805616654
H        -2.23163950488602      -0.70790969126470       1.75151725458061
H        -2.42037537114228      -2.32775022333676       1.03399904278236
H        -1.02841899406451       1.16391296791009       1.50321842530979
H         0.54983170499177       0.52425068201973       1.91046150679201
H        -4.03220902563480      -0.60849759080692       0.10880864248249
H        -3.02927522843293      -1.43036026123659      -1.13822524672059
H         2.56996159890754       0.12435370329662       1.01850008908109
H         2.11296154972007      -1.59611491527325       0.73615267865292
H         0.60013335314006       2.95317465972903       1.70464811260306
H         1.63252673828648       2.27961372527300       0.41706545536783
H        -0.02298150656811       2.91963904139326       0.03466835129990
H         4.47819897900994      -1.17100520237937       0.18977711129924
H         3.55767411777351      -1.65680027788344      -1.28303529926879
H         4.00274825317920       0.08024033509972      -1.01887432054238
Cl       -2.31911862883445       1.04180627987029       4.26902324861059
