22
C8H8F3NO2 optimized with ForceField in AMS.
N        -0.70325747499611      -0.00154256690657       0.01972099443111
C        -0.02257680887794       1.18453895314506       0.00704799492565
C        -0.02809864813107      -1.19064345031536       0.00627697154340
C        -2.16727885651990       0.00112630165392       0.00530291299016
C         1.37473762248124       1.19895244503509       0.00013112916827
C         1.36894135357965      -1.21204427108980      -0.00104045426842
C         2.07181054506580      -0.00813428653447      -0.00230958087697
H        -0.55831204801798       2.12686963768907       0.00077601179543
H        -0.56816533241401      -2.13042742709517      -0.00037376535502
H        -2.56872641013935      -0.89438660571709       0.52770646606838
H        -2.56571719420003       0.89858178244132       0.52646137459049
H        -2.52738003520916       0.00065096977681      -1.04504565738206
H         1.91194878969541       2.13818059320983      -0.00555353089322
H         1.90026903419000      -2.15515941312660      -0.00818622660796
H         3.15467549510821      -0.01031734508405      -0.00839042310515
C         2.77309140582529       6.45616435851519      -0.06066059971973
O         2.66079268115894       7.67114495249068      -0.10049995094348
O         3.53593173407022       5.94841872593430       0.74547943483472
C         1.98308875482222       5.58621769141368      -0.99399081214565
F         2.84795838186617       4.86126195996429      -1.79254503107840
F         1.16236874049662       6.35489928402299      -1.80075951138200
F         1.20105335614576       4.71362489677688      -0.26115663928954
