28
C8H12F6NP optimized with ForceField in AMS.
N        -0.48886904520169      -0.00545602555840      -0.41245694164853
C         0.93895270345483      -0.01183378618293      -0.74863669826875
C         1.77846287348482       0.00218410208293       0.53250243781184
C         3.27222386281585      -0.00199750673036       0.22197059402265
C        -1.14132881645734       1.18490438019785      -0.24081392043094
C        -1.14837220691025      -1.19080163116659      -0.23701863370029
C        -2.49074511415565       1.20726329425256       0.11959415162176
C        -2.49732430570623      -1.20444342108031       0.12373806488317
C        -3.16983634161776       0.00347817039010       0.30440505687457
H         1.18772768907377      -0.91187916002747      -1.35404025247136
H         1.18590323809128       0.87114066841233      -1.37575466107097
H         1.53351586275419      -0.89337322793194       1.14395135510615
H         1.53402531505151       0.90877416734061       1.12768863804116
H         3.54537643135629      -0.91142796058158      -0.35450689238990
H         3.84864394272583       0.00255898005103       1.17137124770169
H         3.54832401563164       0.89957537740377      -0.36413685715902
H        -0.61695362364684       2.12434217497233      -0.37244362525488
H        -0.62922019674430      -2.13329905416677      -0.36506412333240
H        -3.00239841025715       2.15060120080401       0.26120520152112
H        -3.01320291602911      -2.14482053760228       0.26875933832404
H        -4.21335007260461       0.00642504297239       0.59189705570337
P         3.14368987848646       4.49575148446679      -1.18793952649130
F         2.40943859780988       3.05038454130818      -1.74779109439936
F         4.20142721072138       4.43989537952136      -2.53984708591388
F         2.00585269889525       5.39956374674897      -2.10335120165856
F         3.87887904966005       5.95933705411501      -0.67158942132448
F         2.07843100477653       4.51598705567823       0.15933876357379
F         4.27136572714138       3.58142424511020      -0.27028348557067
