37
C9H13F6N3O4S2 optimized with ForceField in AMS.
N         1.10912616395981       0.37227652597595      -0.38019449963129
N        -1.11411371914847       0.37160218513730      -0.37569068479456
C        -0.00320116098580      -0.23628587564250      -0.83533037012573
C         2.49127080004498      -0.02391529233562      -0.63503841995632
C        -2.49747006204971      -0.01874161244012      -0.63461516400670
C         0.68898060331328       1.40016406784805       0.38491095347168
C        -0.69118337981414       1.40004952217751       0.38735883702970
C         3.08095773136118      -0.70041081871803       0.59626631437305
C        -3.09598990134719      -0.69471422300796       0.59320002899790
H        -0.00411790793497      -1.11643750694768      -1.46661803879242
H         2.53232090929325      -0.73320894551477      -1.49045224576858
H         3.09436491564666       0.87124892786479      -0.90022040506987
H        -3.09554556359498       0.87946101882062      -0.90048694638790
H        -2.53877764232781      -0.72668579481327      -1.49104026290729
H         1.33665173477410       2.09589044237074       0.90279052444115
H        -1.33668449826788       2.09677885271453       0.90645761729170
H         3.08128370022795      -0.00083032829621       1.45848342573089
H         4.12408328974100      -1.01040063696341       0.38720946078464
H         2.48618598150623      -1.60224890133432       0.85476650659907
H        -2.50707767187907      -1.60072609097522       0.85123170635023
H        -4.14301287646485      -0.99681381975932       0.38034206992564
H        -3.09179337246389       0.00242743388924       1.45754953634561
N         9.85858130207922      -1.83499884608837       1.97734330910943
S         9.84870613765223      -1.98201131247115       3.61006497592464
S         8.63690803286687      -2.38058198689273       1.02964779136042
C        10.66743461784919      -3.49670311883756       4.06653775899751
C         7.57839431979894      -1.01562194802005       0.59952815322967
O        10.59519075205038      -0.82693143365631       4.21431726567979
O         8.43881340194935      -1.99692362942206       4.13214000383020
O         7.83408394813040      -3.43222142133217       1.74397124008024
O         9.21151807693680      -2.95924907650279      -0.23186011071260
F        10.69043645228707      -3.61420520549829       5.44326787870063
F        11.96340822502778      -3.48332046195069       3.58694829127042
F         9.99116596439771      -4.57373158980380       3.52660372171505
F         6.55873674773792      -1.46489436617041      -0.21636861175685
F         8.31055391075597      -0.05572521233717      -0.07261237920019
F         7.04123658139046      -0.46274248596674       1.74650138267104
