30
C8H13F3N2O3S optimized with ADF in AMS.
N         1.22019442378139      -0.96677824539688       0.31416569292015
N        -0.00307928531800       0.53398711142193      -0.66266150393974
C         2.29484692398337      -1.56706434314393       1.11795558994028
C         1.93709857628470      -1.66393001214955       2.59867964273845
C         1.04815477709172       0.35099043973091       0.14815136731737
C         0.26866887880005      -1.64157282905778      -0.42190413551547
C        -0.49852533443793      -0.69748364405896      -1.04143834442144
C         1.78251896926194      -0.30614183279486       3.27962338819980
C        -0.42011561081322       1.83011599322425      -1.19019421035714
H         3.17654477454571      -0.92580245476876       0.95790690361777
H         2.49572891498751      -2.55483950764142       0.67946794537434
H         1.02310187321445      -2.27147785486668       2.72651356638338
H         2.75858563378994      -2.22590696338605       3.07625423085432
H         1.72743197247895       1.11039253534530       0.52520738350916
H         0.23276664879937      -2.72302566168327      -0.45917229824467
H        -1.33642891330655      -0.79136177389705      -1.72067058083823
H         0.91163717574651       0.24746343250031       2.89519865506699
H         2.67826954782521       0.31555838556602       3.12299811034465
H         1.63513160101908      -0.42955698780438       4.36304955381294
H         0.32713439553307       2.15949552663793      -1.92433293475810
H        -1.41177703141592       1.71719642195672      -1.64179859166957
H        -0.47307165086850       2.55389169095763      -0.36837770018871
S         3.92511821664234       1.49513050681958      -1.10307784278293
O         2.60834591823489       1.88202975992320      -1.66115818025849
O         3.84495479061978       1.03220860708086       0.30922538080545
O         5.05424693460171       2.35759651685359      -1.43132261545918
C         4.28692540608621      -0.10306480591227      -2.03039444540553
F         4.33289959734774       0.09545051730666      -3.37041906847775
F         3.30707176681956      -1.04358459512146      -1.79549721034863
F         5.46648015546491      -0.65182784774161      -1.64213475311948
