43
C13H27NO2 optimized with ForceField in AMS.
N        -0.22385225399904       0.30272893806276      -0.16397591109291
C        -0.91099299814662       1.27132209528891       0.75334585434135
C        -1.12954254563807       0.01199697553251      -1.32296484776056
C         0.12953131777674      -0.94518220481894       0.59937904716658
C         0.99977227458748       0.96772967458433      -0.73283591490054
C        -2.31780834090159       0.82491395895136       1.20272803774650
C        -2.52291579942302      -0.49784355053345      -0.91866316442187
C        -3.20767311292391       0.50242261170020       0.00647848483390
C         0.91095577664916      -2.02075961362859      -0.19376243259791
C         2.12959546414335       1.28086772749871       0.27964787057505
C         1.26111130835676      -3.20779254248569       0.70127064664401
C         3.28575474061713       2.00744273941421      -0.40384343626131
H        -0.31631061982817       1.43609516539822       1.67741411750833
H        -1.01960147230245       2.26519525954905       0.26068514904541
H        -1.28770551515091       0.93750116581108      -1.92529424962995
H        -0.67251030989076      -0.71469581348758      -2.02625248843560
H         0.71609401139344      -0.68189348853234       1.50526445885987
H        -0.77907085117080      -1.43788101943216       0.99625467540428
H         1.43073455130121       0.35254512058562      -1.55391729513020
H         0.71422935388621       1.92882551658548      -1.22068502461744
H        -2.25985582497849      -0.05018239812292       1.88294780968649
H        -2.78749788906508       1.64788035803368       1.78382172797022
H        -3.14184559461394      -0.61801117271747      -1.83404243726638
H        -2.46322756570828      -1.49627188574746      -0.43848405909646
H        -4.17149203194025       0.07940884678025       0.36290838361310
H        -3.42851751138974       1.43753818828644      -0.55440696267495
H         0.30094603902956      -2.40778509545172      -1.03443863057579
H         1.86043329422730      -1.61511485333110      -0.59601602272544
H         1.76071491260894       1.93082362423062       1.09801810526415
H         2.53763713046495       0.34828834974382       0.71960202163483
H         1.78742679279259      -3.98234646132528       0.10443345002164
H         0.33941427419499      -3.65717508211743       1.12885252273219
H         1.92954144341290      -2.88479246893197       1.52729341014280
H         4.08502193529120       2.21642803426209       0.33836483030608
H         2.93868497032674       2.97261089544460      -0.83028379667820
H         3.71157531483645       1.37979782909120      -1.21548098832289
C         2.42169462368030      -0.81060180247487       5.32807304606311
C         1.05840287680233      -1.33093196082778       4.99830237603253
O         0.84525550683092      -1.83279552087735       3.90739441165496
O         0.15696116560359      -1.25986947287974       5.81811453322434
H         3.16225413761969      -1.63465380518276       5.25591970142919
H         2.69908334405452      -0.00717230989187       4.61353119676569
H         2.44449154038266      -0.39782158693667       6.35946935342184
