49
C13H28F6NP optimized with DFTB in AMS.
N        -1.32562664358863       0.11382426268949       0.09318922537064
C        -2.40930288087024       0.36434600275938      -0.91282261427511
C        -1.50113107328474      -1.26786839942695       0.66889719018227
C        -0.02169772644836       0.16396190825109      -0.66577109624198
C        -1.34198932285016       1.12374253105529       1.21002338202654
C        -3.80942534949793       0.18761524776493      -0.33828202134276
C        -2.89518768711067      -1.52003104813172       1.22859556996442
C        -3.98233480657142      -1.23205488708263       0.19777700234286
C         1.23341344900620      -0.06121649514580       0.17274815144292
C        -1.19025306087830       2.57125130237860       0.77690371646358
C         2.47343567411541       0.04492685444612      -0.72167327539936
C         3.74528402624407      -0.16308871069704       0.10675289639593
C         4.99964072889170      -0.06820999849380      -0.76692992660321
C         6.26776852465079      -0.26441302106139       0.06217771749339
H        -2.25549820514255      -0.34999864008946      -1.72714526014597
H        -2.27346475869491       1.37309671316452      -1.30721964181006
H        -0.76378321647977      -1.38555749351105       1.46319686620899
H        -1.28502223413523      -1.97345151581240      -0.13861431720008
H         0.02286985523185       1.14027209285327      -1.15547081277419
H        -0.08761776243866      -0.60232523202108      -1.44367734683215
H        -2.27927090404166       0.99558650650563       1.75044063340317
H        -0.53096039649129       0.85491747290268       1.88403850530364
H        -4.52199035051918       0.37683138718860      -1.14560946415591
H        -3.99753692239841       0.91822264722713       0.45217970464478
H        -3.05832277935172      -0.91926470727896       2.12493385446677
H        -2.93183842518158      -2.57035816778685       1.52851981741279
H        -4.96687991503642      -1.33571833095715       0.65928000476814
H        -3.91545005548548      -1.94613825024379      -0.63001969310661
H         1.30488051154084       0.68094716029946       0.96932839104181
H         1.20902243718025      -1.04847602834005       0.63641485402045
H        -0.25814544695007       2.74423991725248       0.24145413595300
H        -2.02359645644668       2.91166039693078       0.16314778050413
H        -1.17109153316493       3.17044709747457       1.68745363066465
H         2.50041480542688       1.03162071035887      -1.19763488001292
H         2.42079522027087      -0.70867488124856      -1.51546380409086
H         3.70696781647154      -1.14545922241755       0.58829516844860
H         3.78975780611841       0.59369774800955       0.89648873401427
H         4.95551355908240      -0.83075707291173      -1.55239372834974
H         5.03085783068699       0.91226356529154      -1.25487912574006
H         6.26094446149473      -1.24286817804478       0.54415610644682
H         7.14746762192027      -0.19807817854241      -0.57844519623154
H         6.34088541521677       0.50208078658025       0.83470183639972
P        -0.02394847130912      -0.37339663995163       4.34323582367506
F        -0.72138838786856       0.06233309343834       5.74284496095282
F        -1.53575933345452      -0.40619229003171       3.59532642798108
F         0.10757316900945       1.21931303785055       3.88413411871789
F         0.64701488055204      -0.79336294876186       2.84519281969386
F         1.46565980752983      -0.32957880393342       4.99044265317929
F        -0.18553678015005      -1.96008612294934       4.68917464022824
