48
C12H26F2N2O4S2 optimized with DFTB in AMS.
N         1.12243599158562      -0.55793615273221      -0.17123479559303
C         2.10609923048940      -0.54960718754452      -1.30556120630277
C         1.93436238248333      -1.09091632140098       0.96765875203479
C         0.64219295832991       0.82980504163613       0.13068981257883
C        -0.00847690002033      -1.48706996647365      -0.51285704198683
C         2.93210619468278      -1.81745986538455      -1.13172529959821
C         2.81727643523021      -2.17864818753699       0.35743011055919
C        -0.19464376238681       1.44148466430491      -0.99144605552338
C        -1.09961504436034      -1.60149766328488       0.54639891195933
C        -0.42717161621104       2.93150212113468      -0.72037816274754
C        -2.16385596265710      -2.58876200061267       0.04787469040853
C        -1.22127787585072       3.56326822406890      -1.86185896596286
C        -3.29974623340479      -2.73137500411851       1.05783252250323
H         2.72059566940731       0.34728099998136      -1.20788118054268
H         1.57216048000851      -0.52479424940859      -2.25004322769726
H         1.27893606549427      -1.45044565920589       1.75996049861811
H         2.54032440368435      -0.26680299956444       1.35169683847177
H         0.07440914318582       0.78534361153498       1.06371940949045
H         1.53560590333109       1.43677030199342       0.30310596539263
H        -0.44056155482321      -1.12996627890970      -1.44640465379337
H         0.43247893561887      -2.46655491572385      -0.70413924116332
H         2.53612363924158      -2.61537870800199      -1.76269817217615
H         3.96626804240701      -1.63364396899770      -1.42544124847797
H         3.79143073322037      -2.18694942186376       0.84932414099888
H         2.36366042729591      -3.16323555881590       0.48698193890066
H         0.31947986300854       1.32902708209292      -1.94726823238216
H        -1.15885713910119       0.93377464364759      -1.06742694057701
H        -0.69256975710241      -1.95805005734791       1.49746612073102
H        -1.56958412647600      -0.63029221799182       0.72248808115885
H         0.53845772776785       3.43909153037814      -0.62243054128981
H        -0.96965122002963       3.05542460850047       0.22354337830570
H        -2.56406203203352      -2.23483821592244      -0.90694026594892
H        -1.70024257046004      -3.56532784143297      -0.12359535565003
H        -2.19473619873455       3.08211088605997      -1.96126020303613
H        -0.68195087912191       3.45415916118810      -2.80286103240526
H        -1.37396447505309       4.62443794368387      -1.66607532802951
H        -3.78296968373303      -1.76864477259592       1.22910529282529
H        -2.92213743737772      -3.10588916563674       2.01033174716671
H        -4.04404534425314      -3.43127323375969       0.67910986248105
N         0.56375585178855      -0.74515918675821      -5.39035737233226
S         1.76317426372168       0.18040726674809      -4.90899685310126
S        -0.22839090779536      -1.53545316767744      -4.28064574147951
F         2.84318604595870      -0.85661295899976      -4.24983968286037
F        -0.94336762750667      -0.36374160833240      -3.35194402241367
O         2.41547627655181       0.70569867379464      -6.05556665985903
O         1.47267706318222       1.06667561051764      -3.81418566157265
O         0.55767039837654      -2.24420076164917      -3.30158314913846
O        -1.32271121715969      -2.21329911578056      -4.88266281144356
