44
C12H26BF4N optimized with ForceField in AMS.
N        -1.89086600082669       0.13886885281027      -0.05635592496149
C        -2.10230517261745      -1.07179551839358      -0.90734028552735
C        -3.01745769247807       0.12354485838746       0.92750960699429
C        -0.58701353094570       0.03601276279889       0.67707145601858
C        -3.48205312150186      -1.62768028508134      -0.61184917446676
C        -3.74238594899501      -1.20354551361309       0.80537990568942
C        -1.97011467615892       1.36936554794814      -0.90881887464418
C         0.66754192767094       0.05086304333757      -0.23029476356666
C        -1.72920102294702       2.68827942700735      -0.15125980782307
C         1.93836518295050      -0.18099108733550       0.59744971293084
C         3.18827536052286      -0.20277381887539      -0.29100091503355
C         4.45642579414093      -0.36913691852405       0.55550707604303
C         5.70638090486403      -0.40322356261405      -0.31854091911388
H        -1.37409749638710      -1.88186485765962      -0.67208062936855
H        -2.00525816449866      -0.86504484722863      -1.99783443010555
H        -3.76870240557716       0.92038780795407       0.72110194730375
H        -2.68367510681508       0.27236426621421       1.97991077294998
H        -0.57433039237322      -0.90356938857789       1.27745516241967
H        -0.49223575602528       0.86089098022444       1.41804862853713
H        -3.51606747306824      -2.73445574094504      -0.71802266074401
H        -4.23172827826941      -1.16419947278908      -1.29072015720062
H        -4.83137980836663      -1.10056185586703       1.00526339200906
H        -3.30042046002057      -1.94268278449773       1.50977185445753
H        -1.24360985049430       1.31737338338714      -1.74900935803645
H        -2.97326077334470       1.43094289932355      -1.39038331914636
H         0.59646577482588      -0.73640546041062      -1.00975705923873
H         0.76244860543479       1.03371217748735      -0.73609308370167
H        -1.96083480547002       3.54211158908349      -0.82187150077521
H        -2.37560423176616       2.77165046983499       0.74601884475750
H        -0.66768285469482       2.78538877653025       0.15421004756004
H         1.85799661661021      -1.15127218707409       1.13517973433071
H         2.03530924559014       0.63308904213701       1.34943997195959
H         3.25281067536711       0.74802937238748      -0.86475504148795
H         3.11224634434185      -1.04689786677175      -1.01157874187248
H         4.54223475744026       0.47813578414475       1.27014364432419
H         4.39823949828802      -1.31509530993396       1.13656416920214
H         5.79847646246546       0.53991020883211      -0.89792789100488
H         6.60524493574533      -0.51367593675589       0.32426842878223
H         5.66343907125849      -1.26352684521882      -1.01971540542851
B        -6.02603557076788      -4.41478232283689       3.18551023364329
F        -5.65960323510245      -3.11994478327540       2.73369605858142
F        -4.85559828586543      -5.18991701146814       3.40117827959514
F        -6.83825755662008      -5.04568211179906       2.20594534190665
F        -6.75108561531890      -4.30290030958388       4.40163334625174
