40
C12H25NO2 optimized with ForceField in AMS.
N        -0.51747718137731       0.00616487775657       0.00257078978875
C        -1.43982960467211      -0.58035630583517      -1.01885178158681
C        -1.41596600753992       0.61767327798057       1.02994554902554
C        -2.84848764250320      -0.10340585037513      -0.72015995983829
C        -2.83345429041143       0.15196997724813       0.76076786464045
C         0.32957527228824       1.06590178992104      -0.63687794958559
C         0.30428860110565      -1.07642355210013       0.63728521785742
C         1.35146391371354       1.72840494127408       0.31850658483465
C         1.30671877510972      -1.76245644810737      -0.32248221918648
C         2.04849989860478       2.90707597484308      -0.35508057884628
C         1.97361209025776      -2.96183481952172       0.34498088446464
H        -1.16546593946378      -0.31474502377061      -2.06563076501671
H        -1.46260802266276      -1.69393259837655      -0.97736549807875
H        -1.12657442289684       0.36555739092703       2.07507807205511
H        -1.42740689517164       1.73072935589605       0.97122843238598
H        -3.05037307249976       0.84478681770482      -1.26631840995330
H        -3.61188515287154      -0.86398532573172      -0.99496779008577
H        -3.03201651126487      -0.79424402301140       1.31149486178134
H        -3.58471814877997       0.91928776518280       1.04991985458983
H         0.88324674530928       0.65189582996391      -1.50827528320931
H        -0.32696421234030       1.86159752230624      -1.06043542331531
H         0.87154373869744      -0.67862379747438       1.50755402553149
H        -0.37105435816699      -1.85584034259190       1.06153360552846
H         0.85352872752838       2.09475702107382       1.23980889493549
H         2.13465423367130       1.00090430205940       0.61521274814749
H         2.10865180352257      -1.05493226639293      -0.61751943695326
H         0.79839368720346      -2.11165201399683      -1.24472422589148
H         2.60043315303689       2.56384714204529      -1.25594205200054
H         1.30667906882544       3.67916347406515      -0.64991070017792
H         2.77282168612367       3.36338716028835       0.35240214902905
H         2.53599331122210      -2.63696738708860       1.24617224809632
H         1.21228854634815      -3.71542732865981       0.63783124459931
H         2.68452361374148      -3.43400748207012      -0.36576481492687
C        -1.13051334962844      -0.62363843000835       5.51915231520383
C        -2.40374913483883       0.00242277563291       5.99421457583908
O        -3.47264166789479      -0.36937394847188       5.53814589856847
O        -2.37917131525568       0.88372254263978       6.83811110883425
H        -1.14142325054783      -1.70986984704972       5.74811583259419
H        -1.03239153658542      -0.48322255759510       4.42278302274101
H        -0.25444583873643      -0.15935855827960       6.02056691688052
