31
C11H18ClN optimized with DFTB in AMS.
N         2.45638199337103      -0.04208738360426      -0.63175630495583
C        -1.35502775821444      -0.03720419874206      -0.73956507720102
C         0.04831148453385      -0.03496251252880      -0.12779506562534
C        -2.43459736148720      -0.02760567804264       0.34727273681028
C         1.12465616838479      -0.04455655035892      -1.22166919712528
C        -3.83933110154145      -0.02943014782756      -0.26417352701103
C        -4.91815547282171      -0.01960008292081       0.81767690231431
C         3.00595461637846      -1.22613018814014      -0.18341837061589
C         3.00301177802557       1.14541487991810      -0.18860024266150
C         4.15143067933456      -1.25760393041374       0.51030683347398
C         4.14888582831177       1.18364956567455       0.50392588834085
C         4.95358801369854      -0.03590062387924       0.74358878073192
H        -1.47679335532730      -0.92606455846848      -1.36792309926394
H        -1.47396587852608       0.84283662367552      -1.38075319684454
H         0.18002243225240       0.85350865499374       0.49720468138811
H         0.17755160276075      -0.91490692822880       0.50970405676365
H        -2.31348656498547      -0.90766543141546       0.98779555525596
H        -2.31035215978792       0.86098289533669       0.97530326383482
H         1.02667480306686       0.83877119856247      -1.85949567741359
H         1.02417109560689      -0.93746404758408      -1.84555553093481
H        -3.95828014204328       0.85068474256383      -0.90488444093360
H        -3.96155399869288      -0.91827791394365      -0.89208180717190
H        -4.82539711104425       0.86999945625238       1.44179683888281
H        -5.90720644112749      -0.02101254603224       0.35972595603638
H        -4.82876089729637      -0.90047453447481       1.45453213680357
H         2.43745844504431      -2.12088553922963      -0.41188531852387
H         2.43148181792282       2.03755158146936      -0.41992112527780
H         4.55405431624898      -2.20297240846932       0.85228420614169
H         4.54922798449485       2.13176075106429       0.83936009806347
H         5.45076980463202      -0.03387087991659       1.71544813382510
Cl        6.39769536322746      -0.03799452688971      -0.44287863640696
