40
C10H15F6N3O4S2 optimized with DFTB in AMS.
N        -0.66000201182530      -1.03539111589565       0.38919805824759
N         1.39621705289676      -0.48598510965587       0.69314230737089
C        -2.09917131554867      -1.17079144477632       0.58446047504396
C        -2.85281984459466      -0.18928009855353      -0.31483233135316
C         0.17430540302520      -0.40290070765195       1.21150503424624
C         0.04431282237985      -1.53920369713069      -0.67028774612798
C         2.60641631815242       0.08723650068302       1.27537812119690
C         1.34389574832562      -1.19388603822316      -0.47700882250823
C        -2.55388769687187       1.26384643220222       0.04812136510044
C         3.14551623232965       1.19809951885031       0.38356007162886
H        -2.30952448081405      -0.97903340845078       1.63833540844380
H        -2.37248014445945      -2.20210678444402       0.34934612369360
H        -2.58649067986071      -0.37380418414642      -1.36012918049331
H        -3.92217847844818      -0.38470797927762      -0.19797262873832
H        -0.08244150854657       0.04629620011076       2.15667630838899
H        -0.42676109303850      -2.10419174939470      -1.45533869042465
H         2.34347779717142       0.47490726035484       2.26061233057505
H         3.33593530760466      -0.71774265685039       1.39431893857925
H         2.22240593406032      -1.40302996704416      -1.06155200260437
H        -1.49200976803323       1.48032146538539      -0.07695433516361
H        -2.82985759608793       1.46274098857541       1.08405157124644
H        -3.12220883451966       1.93137491839354      -0.59857243236380
H         3.41776879928487       0.81227173387499      -0.59852848197456
H         4.03135153330480       1.62616825921068       0.85024246657583
H         2.39861769215703       1.98209851696002       0.25914902474030
N         0.69943960337086      -2.44284955195965       4.98642696402616
S        -0.29965928595166      -3.07490047906730       3.90566353814282
S         1.67845434005907      -1.30588806383671       4.43482516040987
C         0.71752342313373      -4.12520840002415       2.72351873656109
C         2.56218821264367      -0.94984616363357       6.02277037692351
O        -1.14867470481748      -4.01032591726226       4.58597502170054
O        -0.92920514671936      -2.11225670065276       3.01270216862806
O         1.04104370996611      -0.04971598730699       4.05936880699942
O         2.69512222601491      -1.77646510151996       3.50986097380415
F        -0.04274562842864      -5.09733313314063       2.24026565924602
F         1.76878155207862      -4.65654640735508       3.31758270821128
F         1.13099050144302      -3.38126995387997       1.69673412284954
F         3.47140166546386      -0.01256064496754       5.79984154820160
F         3.16602973339056      -2.03591993650433       6.47082465691490
F         1.71478344650892      -0.51629208819506       6.93878033495490
