46
C12H26F6NP optimized with ADF in AMS.
N        -0.96414264270781       0.26207297209463      -0.12448558980232
C        -1.56288337961151      -0.44383166575710      -1.33692271200815
C        -2.09336011317065       0.90173832631962       0.66735193201320
C        -0.19851113793702      -0.70478390281702       0.77590580760759
C        -0.05780830528213       1.35333225867099      -0.66137371526675
C        -2.66186732766600      -1.42757417725372      -0.98775249135096
C        -3.18942262332715      -0.07768795405460       1.05007562576343
C        -3.77596266904259      -0.76290084837916      -0.18251324101332
C         1.03627771587483      -1.32879851593886       0.15264237634128
C         0.74461331633108       2.12976601946625       0.37038364483649
C         1.79788811541945      -2.12773254915091       1.21807743463998
C         1.55515009746036       3.22689095374998      -0.32433252699925
C         2.97018606145579      -2.89457394401114       0.61270442564275
H        -0.72530044683130      -0.92853069494177      -1.85782753548758
H        -1.94814288809174       0.36995911493590      -1.97487596860264
H        -2.49447437293989       1.69732153958641       0.01677286227174
H        -1.63626339121860       1.36593116273064       1.55160390725725
H        -0.89687237356672      -1.49622045944455       1.07811031652214
H         0.06102233599797      -0.12199347564196       1.67357015422941
H        -0.71671390504376       2.03394343624343      -1.22458611718606
H         0.61384478469197       0.86665892859279      -1.38412823356529
H        -2.25605376803209      -2.29374824069861      -0.44669153883881
H        -3.05164251327333      -1.82038008404211      -1.94269929848797
H        -3.96025940698144       0.50267683207617       1.58496212292921
H        -2.81192831524091      -0.83652394361125       1.75275852561061
H        -4.30601931278600      -0.01825566084265      -0.80692937139269
H        -4.50899438575532      -1.52348944568883       0.12669643294357
H         1.71409041219801      -0.56921499415210      -0.27606479605034
H         0.74039493378194      -2.02231370189989      -0.65175308068881
H         0.07608814545657       2.58931530446203       1.11613313589154
H         1.42839197532177       1.45526451511324       0.90894954213709
H         1.10452967507179      -2.83594441964099       1.69911424880156
H         2.16140748751889      -1.43418465465521       1.99921455213852
H         2.14314561099743       3.79679931006335       0.40965873385824
H         2.25714780686583       2.79975637401364      -1.05689298867143
H         0.89983625063273       3.93604854732958      -0.85297131578746
H         3.68435915179029      -2.21855376702303       0.11453542364315
H         2.60713086512243      -3.62345979759385      -0.12877981493100
H         3.51634016690101      -3.45438510000872       1.38643305857193
P        -1.74602967217170      -4.52724921390204       1.46812023962558
F        -2.09298998109509      -2.96544632552915       2.02808510391444
F        -2.67518502550457      -5.15432196395438       2.65776235817203
F        -3.05793397079001      -4.41686931983966       0.46186248466951
F        -1.37940514908613      -6.01050864827377       0.88665560476961
F        -0.80777280113520      -3.82108374998509       0.25484137886413
F        -0.41625575170148      -4.54157961961649       2.44920492136482
