32
C10H16BF4N optimized with ForceField in AMS.
N         1.74540929587803      -0.03013687666207      -0.52519883497412
C        -0.63069874600426      -0.01482459161374       0.09051168264373
C        -2.07200178234699      -0.02976456593878      -0.42705377418158
C         0.37864813714021      -0.06627607448908      -1.06011100055519
C        -3.06969163577375       0.02850611850965       0.73592140689355
C        -4.50870604058362       0.02874094882350       0.22972153627824
C         2.37436525745048      -1.19813476699912      -0.18971343242750
C         2.35975837997688       1.17401500316954      -0.31256623493149
C         3.64844403083401      -1.17824793851344       0.38267912799530
C         3.63310651515792       1.22928135996635       0.25899803134980
C         4.27766407116809       0.04450685541690       0.61088539663864
H        -0.46680319706234      -0.88888227753460       0.75865124387529
H        -0.46329614311767       0.91367793421822       0.67710906587221
H        -2.24335081883629      -0.95890644513476      -1.01403186928083
H        -2.23189600998650       0.84682252115876      -1.09302447767707
H         0.22195214778475      -0.99234161912662      -1.65753815402873
H         0.21104282644545       0.79310998282198      -1.74750658390255
H        -2.89935045585436       0.95217050611068       1.33152348944083
H        -2.92303605928806      -0.85084792396459       1.40069441227323
H        -4.68931141144219       0.91302697099496      -0.41809405376956
H        -5.20553814443544       0.07289417809669       1.09333466061025
H        -4.71471646877652      -0.89832077260489      -0.34666632157086
H         1.88652005808878      -2.15240396845748      -0.34987916410488
H         1.86027191502175       2.10058178726341      -0.56981863187810
H         4.14019340199041      -2.10352571454865       0.65429543188526
H         4.11272846385243       2.18369832349569       0.43421825842899
H         5.26099412532373       0.07392558121112       1.06243601567626
B         1.36058086926929       2.37229123359546       3.82190027758593
F         2.32847015582823       3.41082795850717       3.84634114790332
F         0.30780461167395       2.68461520248564       4.72243455702720
F         1.96826801586825       1.14879761853628       4.20930637351609
F         0.83764695495534       2.24614055570582       2.50908257398834
