34
C10H22ClN optimized with DFTB in AMS.
N        -0.95331717148788      -0.36157789463755       0.28638131080674
C        -2.11247555713123      -0.66357148428131      -0.61910083519893
C        -1.41617434132538       0.84274128441574       1.04646563753922
C         0.25207403376207      -0.02872292671459      -0.55166054469102
C        -2.62929551387941       0.69804651052311      -1.06471661208442
C        -2.20561865325938       1.67983421006185       0.04046428307406
C        -0.70037264807631      -1.49666095888401       1.23385374398974
C         1.54294498086948       0.18088404525301       0.23182249812995
C        -0.26570055361659      -2.78650079795590       0.55686833107391
C         2.64401016286544       0.61945399928373      -0.74301015457335
C         3.97651735432783       0.80686860883854      -0.02183611227845
H        -2.86220969904911      -1.19554499859392      -0.02880046612077
H        -1.76568643328088      -1.29369823577129      -1.44793332184938
H        -2.06111132712429       0.49747175558829       1.85783901317449
H        -0.55961034921396       1.36597893358338       1.47055671124827
H         0.37009876460392      -0.84729186878322      -1.27355193314907
H         0.00460740059348       0.87901076783316      -1.10584206348512
H        -2.19078119155892       0.98270306469472      -2.02296826640188
H        -3.71351596882145       0.66998495852126      -1.18307813695015
H        -3.06957914306532       2.13273746394895       0.53020660638963
H        -1.58819882667126       2.48293706861062      -0.36662722972666
H         0.05404326601429      -1.15797358364140       1.94847723409641
H        -1.63557183774044      -1.66016756577531       1.77744821974009
H         1.41884302802378       0.94419717003153       1.00737578214693
H         1.85320971107948      -0.74760731678653       0.71796598322243
H        -0.15710037844872      -3.54685560143011       1.33026569190835
H         0.68572618886469      -2.67361443029957       0.04303232047154
H        -1.00348528093906      -3.12301605870074      -0.16801089915691
H         2.75374767956692      -0.13800676978109      -1.52464619811140
H         2.35162224076609       1.55905937626927      -1.22316830700003
H         4.29406771705566      -0.12699274451429       0.44364565047707
H         3.89047761498148       1.57028797999466       0.75298967348806
H         4.74140028544892       1.11788989147875      -0.73307430049593
Cl       -0.33672831693390      -2.36332787417971      -2.66808277040340
