19
C7H10ClN optimized with ADF in AMS.
N         0.10578323366422       0.01775809217344      -0.45001689789017
C         1.56523982275565      -0.05303211648584      -0.48632711254493
C        -0.53701680185451       1.22585049002639      -0.57771979125968
C        -0.64075563015612      -1.10564676397040      -0.18675141103874
C         2.17782948463549       0.16717929740397       0.89048489654658
C        -1.87554553529790       1.34867766602734      -0.39986653149968
C        -1.98205789050324      -1.04883430280409       0.00308606412650
C        -2.67301959946509       0.22858159296241       0.07390028797912
H         1.84277097243719      -1.03878156531301      -0.89272633884609
H         1.92022623029634       0.70291180517610      -1.20558251405578
H         0.09717172310985       2.06511677824109      -0.86275905969238
H        -0.08505518643377      -2.04289944461744      -0.17391535446916
H         1.89301575127149       1.15474588332955       1.28329252696561
H         3.27584000106303       0.10950172205513       0.83980256731098
H         1.81519662332284      -0.59454296656869       1.59710708429529
H        -2.34419350831453       2.32225738183827      -0.54331299550074
H        -2.53460994914540      -1.97223581287677       0.17766478224215
H        -3.71870783157706       0.22117196702171      -0.24461064162231
Cl       -3.10581550380848       0.58544208468086       2.06685684955344
