45
C13H18F6N2O4S2 optimized with ForceField in AMS.
N         2.37248288407948       0.03662717683267      -0.53582127288873
C        -1.44482198386264       0.05567420404105      -0.69454577581588
C        -0.04097102844707       0.02466882776533      -0.08007504877443
C        -2.51896366688979      -0.01242332110108       0.39745991022643
C         1.04471730045443       0.08462343249323      -1.15944038232572
C        -3.92637078947537       0.00408570916181      -0.20853943056161
C        -4.99144053738622      -0.07265216469893       0.88224837210313
C         2.96461030775001      -1.17265411577914      -0.29335693025748
C         2.98662338154300       1.19862395590595      -0.15603168208978
C         4.20208742212206      -1.23962283657023       0.35150623132318
C         4.22447928463786       1.16762831620077       0.49096255007297
C         4.83201248371450      -0.06070679044875       0.74806042432027
H        -1.56461667421435      -0.80933610901412      -1.38359862970598
H        -1.57165639502263       0.99376976555151      -1.27871065695015
H         0.08193753801661       0.89062320454515       0.60712588126427
H         0.08430617823256      -0.91041656777540       0.50911842161583
H        -2.38493175167969      -0.94606385398364       0.98753979776202
H        -2.40352132750108       0.85682525532293       1.08223493419848
H         0.93335319414868       1.01808118486853      -1.75543713796861
H         0.92246081227627      -0.76615681193002      -1.86670459031109
H        -4.07250193640369       0.93890880295314      -0.79279434155812
H        -4.04980732059738      -0.86200185445274      -0.89490649509358
H        -4.91445298408017       0.80443026084812       1.55935877649560
H        -6.00008738838727      -0.07719496175750       0.42326992615103
H        -4.87425742906433      -1.00591745692376       1.47241142908665
H         2.47423530734275      -2.09339730777760      -0.58678751565708
H         2.51369483507504       2.15601740297831      -0.34047921392844
H         4.66290914346521      -2.19873527483716       0.54975780258044
H         4.70284871082514       2.08865383869200       0.79822207110552
H         5.78600900610168      -0.09918179243986       1.25811619930245
N        -9.00552705853163       0.35536302116085      -4.10954671646736
S        -9.22715473853764       0.58023754402439      -2.50185800547324
S        -8.44298270605319      -1.04800082964939      -4.74185405290552
C        -7.75313756537960       1.29467649865568      -1.80674710238468
C        -9.81765169071868      -2.00095200148698      -5.35023523013824
O       -10.37305219747611       1.52844795469542      -2.29102450646524
O        -9.52177228904003      -0.72567504600559      -1.81690747404129
O        -7.69968661644172      -1.84505167882188      -3.70571691099446
O        -7.52494280043504      -0.73596181518376      -5.88934466719716
F        -7.93613245045227       1.50318632556005      -0.45291525562179
F        -7.48818383297416       2.50212329825473      -2.42389048103239
F        -6.68677365698431       0.43898710128804      -2.00404256457830
F        -9.35662799275474      -3.19399602006420      -5.87301019927053
F       -10.47151885994870      -1.28942157704814      -6.33828889806807
F       -10.69692715124576      -2.26244257784982      -4.31657754988333
