52
C16H16F18NP optimized with DFTB in AMS.
N         1.01869235936115      -1.12133150071566      -0.30516507793759
C        -1.24589783770620      -1.61617431112498      -1.20386181226897
C        -1.99858770717752      -1.72101645119170      -2.53362777897340
C         0.05006461961612      -0.81681802950747      -1.37408451847926
C        -3.20922019947519      -2.64967355764133      -2.38957092394025
C        -3.95510363293775      -2.79154962878500      -3.71389924849904
C         2.28025807420161      -1.43287939689980      -0.63776987813465
C         0.61333875629846      -1.17106141941415       0.97556481881621
C         3.19542035394515      -1.80533676175237       0.32923662407584
C         1.48363712041644      -1.54925723987201       1.97333190389026
C         2.79528813962920      -1.88275452409087       1.65252950989409
H        -0.99649770341719      -2.61880268193663      -0.85354187846764
H        -1.88534765913874      -1.14233145866440      -0.45295552541018
H        -1.32653666080579      -2.12436803438309      -3.29617043341158
H        -2.32192985978970      -0.72547079815378      -2.85692403139728
H         0.52812550520867      -1.07575519425252      -2.32165265785123
H        -0.14175689947414       0.26045700803065      -1.35712518527260
H        -3.88661033830312      -2.25329193579741      -1.62511256591619
H        -2.86464464682460      -3.63398630478444      -2.05820828618187
H        -4.31480925735530      -1.82081678384389      -4.05940047821107
H        -4.81087692318221      -3.45506125548369      -3.58884926954823
H        -3.29891281707932      -3.21118406472750      -4.47720861259163
H         2.54021442533466      -1.39201643039815      -1.68717591241977
H        -0.41866193745300      -0.91678938346706       1.17933560619460
H         4.19978610418176      -2.07156285228853       0.02667536020616
H         1.12739894833192      -1.60052207085761       2.99408104242677
H         3.48502734546731      -2.20583850282660       2.42242866640391
P         1.10614879219387      -5.13233261298680      -1.81193523142727
F         1.59048051718152      -3.58902557111684      -1.22197440694324
F        -0.48180163671807      -4.54766210102254      -1.83044249409669
F         2.69507356913657      -5.68472092002858      -1.77993122463518
C         1.46173811356712      -4.27557090997827      -3.55379713428710
C         1.01204909827502      -5.59171561227672       0.10530100073185
C         0.38058313409926      -6.85028257454485      -2.47409780499831
C         2.92942922633442      -3.86798111230723      -3.87424597227548
C        -0.25597860691259      -5.20705984719861       0.90989025140182
C         1.36568238934622      -7.95491716867771      -2.93432080458781
F         0.76366693682654      -3.11100362608725      -3.59067148768018
F         1.05924755933586      -5.00454105224834      -4.60384538073832
F         2.01947484744449      -4.94838422149757       0.74126936664479
F         1.23094118760024      -6.90185861608727       0.29156024900517
F        -0.44562293424539      -6.60657428889472      -3.50660996118291
F        -0.38567348043618      -7.37071289906438      -1.49508796269578
F         2.94933880561713      -3.11049679952236      -4.97500830729378
F         3.70741970034060      -4.91636361509935      -4.08510932690334
F         3.47202863421113      -3.13125362469537      -2.89187223199370
F        -0.15072313281769      -5.61197633957829       2.17630769037500
F        -0.37664556245352      -3.86417733255728       0.94131396008926
F        -1.37581909676854      -5.70322476212647       0.41076651474908
F         0.71102442393379      -8.98882763807087      -3.46082194548069
F         2.09405540793556      -8.40240511830326      -1.91766592078344
F         2.19081576449994      -7.47297504139910      -3.86350254838920
