32
C8H16F3NO3S optimized with ForceField in AMS.
N         0.16392261956822       0.29977859909081      -0.07529163304841
C        -0.43462902693632      -1.00542720395689      -0.46814186232628
C        -0.93796318760543       1.06439502285647       0.58405073885102
C        -1.94115762765409      -0.85315732151852      -0.42385502166110
C        -2.15885626766867       0.16159243590146       0.66564974038854
C         1.29086233318018       0.11815945498276       0.89079462994505
C         0.62362748219745       1.03826296718945      -1.27996094794426
C         2.47484882974921      -0.70395054622263       0.35094412331052
H        -0.16968173823168      -1.81070362637189       0.25409387342343
H        -0.10847631848025      -1.34947180687492      -1.47624338663087
H        -1.22432426090691       1.97795234739950       0.01184174954366
H        -0.67478380634372       1.42168894912811       1.60636827704068
H        -2.44882994097155      -1.81607270123277      -0.19630940665891
H        -2.31050414311281      -0.45337805155770      -1.39399462185812
H        -3.10592705899758       0.72480206458531       0.51739127521389
H        -2.18156652401601      -0.35080918791856       1.65345094959562
H         1.68426336680607       1.11071181752788       1.20867887213049
H         0.92065684183937      -0.38639298512645       1.81282907333601
H         1.37053569451769       0.45451723953910      -1.85888969472643
H        -0.22605514303886       1.24203721171581      -1.96992205049465
H         1.08148060431315       2.01224366057872      -0.99616646762759
H         3.17843852203479      -0.91415008677998       1.18423601291301
H         2.14592352092444      -1.67512592365970      -0.06890551376289
H         3.03360143678824      -0.13883718645911      -0.42221060230311
S         1.05972843192011      -5.05038905486435       2.06450382093006
O         1.26080782891870      -4.06969898454241       0.90120698216205
O         1.31400983699275      -6.41801216172170       1.41431703455914
O        -0.46162565287320      -5.03902226917661       2.27274389044388
C         2.04651030288154      -4.70438870567580       3.54519807288039
F         1.70491993628663      -3.46280768098898       4.04549760258880
F         3.38817429901528      -4.71620933854410       3.21622385805214
F         1.79686512230325      -5.67157918580232       4.49955788623426
