66
C18H34F6N2O4S2 optimized with ADF in AMS.
N         0.46659944372255       2.13381049954630       0.14587583471600
C        -0.06666437507621       3.19514663598120      -0.80181029443719
C         1.12246294551513       2.97950495968250       1.22715741676971
C        -0.66340087537655       1.32263569592173       0.74377640197927
C         1.47973320010979       1.26555900611640      -0.56798548806067
C        -0.53220728341546       4.35615636488813       0.08089543605535
C         0.15937719300725       4.13922742340635       1.45056887989468
C        -1.31636133038167       0.33259251975583      -0.20685146698553
C         2.18539262633168       0.25780539026191       0.31669838386168
C        -2.56126689893023      -0.29697681572000       0.42351785638884
C         3.24544703545828      -0.48364801570014      -0.50155662401802
C        -3.22049214956869      -1.31967852943812      -0.50072331156271
C         4.08447839030619      -1.43130740462321       0.35065260506971
C        -4.47286804572167      -1.95808588579191       0.09612010010865
C         5.16952223973160      -2.13999167032926      -0.45705114962746
C        -5.11893631780334      -2.96989619465453      -0.84697340049125
C         6.01438609575196      -3.08602573992198       0.39142217527821
H         0.78255134121609       3.51095046090155      -1.41889135775138
H        -0.83900153547798       2.75236887272465      -1.44195045152754
H         1.31283350537470       2.35654746758218       2.10942905983127
H         2.07494393739468       3.32442005980054       0.80072481806283
H        -0.24371474541019       0.79820109916335       1.61534883050718
H        -1.40291341655768       2.04971092168706       1.11097782032213
H         0.95036175566426       0.78402854458464      -1.40379095448364
H         2.20459395287082       1.97353048375643      -0.98980980911856
H        -0.20965323313707       5.29492095655223      -0.39164252078159
H        -1.62644083628835       4.38610827769424       0.18621055615725
H        -0.57693075395669       3.90584391115881       2.23485310174401
H         0.71853443700091       5.02611410981314       1.77848476159496
H        -1.60664685492958       0.82862844236633      -1.14887202135172
H        -0.60635536434128      -0.46830276472353      -0.47020301960121
H         2.69607040841555       0.78590918105601       1.13850970221480
H         1.47847743881395      -0.46894316138244       0.75562982409114
H        -2.28820445331302      -0.78683093323669       1.37684004241999
H        -3.29097328704882       0.49516380877301       0.67431799468739
H         3.91235419509963       0.25703869648113      -0.97556861584160
H         2.75886834333638      -1.04946191160220      -1.31853307030692
H        -3.48295732634581      -0.83033503232476      -1.45780050724033
H        -2.49018031998094      -2.11302625532008      -0.74819956112049
H         4.55863717811586      -0.85303035409712       1.16532127721099
H         3.43115732023283      -2.18420022589997       0.83247305514895
H        -5.20152035328779      -1.16541097145625       0.34653213897513
H        -4.21111772178045      -2.45238988659630       1.04958027587650
H         4.69871895815459      -2.70138305621900      -1.28513780752422
H         5.81794507649747      -1.37862954183567      -0.92610328993572
H        -5.41272797667713      -2.49198043636330      -1.79561440814491
H        -6.02011076506134      -3.41701477821717      -0.40153234220567
H        -4.41947309685972      -3.78684185467624      -1.08764104989203
H         5.39015719325017      -3.86996282423173       0.85083726206978
H         6.79055919346625      -3.58100032588964      -0.21137689930978
H         6.51750080362531      -2.53842303163422       1.20503583436405
N         3.32376802695475       4.06257672519561      -1.07558032841435
S         4.68990924292396       3.29647428474077      -0.66749799801702
S         3.10930201174355       4.96533961542116      -2.40052166727089
C         6.00530235593133       4.61102182428302      -0.27364555396265
C         3.00058397355412       3.75873233090004      -3.85926029382714
O         4.40407370575092       2.68709893328542       0.63470707424176
O         5.27958323194283       2.47632106505723      -1.72036627041235
O         4.20655793186530       5.85738354946110      -2.73821894833136
O         1.73605033455362       5.46430931997013      -2.30806799200590
F         6.91784894850697       4.05292297940447       0.55971824997475
F         5.44728442819936       5.67488501433171       0.34672972361643
F         6.63648920772595       5.02240361381411      -1.38599618304349
F         2.40135953213350       4.38353678496952      -4.90007938360764
F         2.23405915585269       2.67601670761382      -3.52355147385712
F         4.20760150522494       3.32247492268167      -4.25334755836334
