49
C15H28F3NO2 optimized with ForceField in AMS.
N        -0.69621081347646       0.54008905993084      -0.19402274616201
C        -1.67121365482699       0.28294089097775      -1.30353170514989
C        -1.24753865377407       1.62265294921918       0.68485647945187
C         0.56359114478681       1.04250536151629      -0.84386908234161
C        -0.44277459661749      -0.69488627133321       0.62944283371340
C        -3.08932245377849      -0.06873105383550      -0.82699250100463
C        -2.67112283427814       1.34194027923936       1.21054442207813
C        -3.63987737432718       1.03321360133284       0.07202718632425
C         1.76205468568748       1.29699588778171       0.10377051562711
C         0.22169825466147      -1.87620180176871      -0.11839085826396
C         2.96681972107600       1.83158554740118      -0.68322383606930
C         0.43866177433016      -3.06536824270191       0.82615699129260
C         4.17576522465679       2.04208293775001       0.22449851885075
C         1.09570630085035      -4.23646944927787       0.10019761282180
H        -1.31564970700858      -0.51841266126124      -1.98014592002679
H        -1.76319274973263       1.18828787033409      -1.94888204814850
H        -1.28056907604662       2.59199335911113       0.13564965041622
H        -0.60051955615035       1.78123786289261       1.57409166571959
H         0.35690305630701       1.99696859840744      -1.38196829066469
H         0.89667718340937       0.33720379976905      -1.63601102857326
H        -1.38448108662323      -1.08000900899079       1.06584317274112
H         0.18396638080742      -0.44301428757403       1.51290866542053
H        -3.10797218432161      -1.04712431505945      -0.30476008259907
H        -3.75065258748011      -0.16849291307036      -1.71488567513372
H        -3.03626620384652       2.24071826106253       1.75307357980357
H        -2.66642003949712       0.50914939625333       1.94394383033887
H        -3.81047918456384       1.95312771171981      -0.52953097338464
H        -4.61707181781109       0.71256724327050       0.49287091764483
H         2.07073773206874       0.35647329937469       0.60338654147019
H         1.49427522594153       2.04364711617242       0.87847007969900
H         1.20954761759463      -1.57764181262561      -0.52251830909441
H        -0.42338615447585      -2.21822903678906      -0.95222135440006
H         2.70325197654658       2.80089337599187      -1.15974614787449
H         3.24362636981503       1.11116140416850      -1.48382199326762
H        -0.53826427412305      -3.40178697359231       1.23662465852342
H         1.09005417352197      -2.75814903014173       1.67297644874001
H         4.48303173582867       1.08023542714528       0.68740047391565
H         3.93639088523016       2.77483614587442       1.02406523069463
H         5.02583731458470       2.43410373778296      -0.37296712190950
H         2.09161997321096      -3.93882775829649      -0.29138317725830
H         0.45721168792028      -4.57683021979420      -0.74262422964049
H         1.23079584362013      -5.08255517043810       0.80651241734306
C         0.84600543388338      -0.39763119465276      -4.42981267511784
O        -0.07230784086712       0.40687606431944      -4.43009495747337
O         1.98974369751678      -0.00626882215290      -4.59770511868427
C         0.57934062569260      -1.85956209688707      -4.22399126763859
F         0.98742202757455      -2.56445102380988      -5.34103132191046
F        -0.77068891229425      -2.08557116381437      -4.01813287975679
F         1.28559365139725      -2.30760585673166      -3.12347060828235
