38
C10H22BF4N optimized with DFTB in AMS.
N        -0.42319653862247       0.40678509390928       0.07225434539337
C        -1.35009543747559       1.37350224649350      -0.61061157991656
C        -0.79634165399767      -0.99364129379071      -0.29530825636812
C         0.96311967574007       0.71455502799499      -0.44209676286766
C        -2.81906530444708       1.09694213366702      -0.32840533236940
C        -2.25764616381249      -1.31333178109278      -0.00073041896591
C        -3.18512755852135      -0.33397027109081      -0.71828340004363
C        -0.45629305243071       0.61049510866071       1.54285760008054
C         2.08915968603050      -0.15252209043946       0.10365108435248
C         3.39911473163491       0.33409326253845      -0.53620764722326
C         4.58959627579629      -0.48746220771908      -0.05197452886483
H        -1.14989947609287       1.29882110446565      -1.68138211124017
H        -1.06519147633981       2.37653634004076      -0.29062187562858
H        -0.14204954815394      -1.67018399604944       0.25789061712135
H        -0.59573598658931      -1.10083841145038      -1.36467697505785
H         1.15534490403282       1.76247397938036      -0.20390900859660
H         0.92334078484958       0.62138581710178      -1.52904705240010
H        -3.40228323376635       1.80451629187712      -0.92284855489912
H        -3.05882131467133       1.27279843398044       0.72431511711404
H        -2.44408202247923      -1.28875072277386       1.07683182539603
H        -2.44827891771775      -2.33221775382378      -0.34784584254348
H        -4.22277307255691      -0.54235545055619      -0.44749172874950
H        -3.08229720726768      -0.45813571265236      -1.80077468018011
H        -1.47515140758084       0.52196548850970       1.91084670824895
H         0.16812922640513      -0.13946656613836       2.02314829497090
H        -0.07341487000708       1.60607146737467       1.75922847264832
H         1.93177216004957      -1.20714180909419      -0.14538385771431
H         2.16255266805520      -0.06728492236223       1.19259753987292
H         3.54688052435341       1.38893229146859      -0.28864926851813
H         3.31262352616686       0.26317690646870      -1.62426181934043
H         4.46501372600549      -1.54016698536125      -0.31234519346876
H         4.69816047635725      -0.40843671991512       1.03125238324504
H         5.50330257305484      -0.12084464860231      -0.51924341610167
B         1.62228553989556       3.05217604552935      -2.35495736982862
F         2.34474101742131       3.17339962978437      -1.14683568829203
F         0.23468511417498       3.02084588839402      -2.00189586479798
F         1.92656339584824       1.79351545691083      -2.92017158247768
F         1.88528775015843       4.07818791736208      -3.21585866208948
