38
C10H22BF4N optimized with ForceField in AMS.
N        -0.56161226511132       0.30962442719351       0.13925816128777
C        -1.55822218665325       1.24421903510204      -0.47512862266152
C        -0.89847038340359      -1.10573508994406      -0.20661067599562
C         0.77628451654556       0.66964826930127      -0.43870692160060
C        -3.02733331094219       0.89580037248057      -0.17120850569296
C        -2.34712146975252      -1.49320922292139       0.13370136933503
C        -3.33309340387815      -0.55025753356253      -0.54553348965723
C        -0.53024803622191       0.50214466779427       1.61494266602368
C         1.97843363032628      -0.15088873701015       0.08941221990303
C         3.28454382036947       0.32135046632308      -0.56167635642548
C         4.47846384970572      -0.47813524716449      -0.04764123458700
H        -1.45086414590305       1.24691542324422      -1.58501603052173
H        -1.37248781748364       2.29002400239663      -0.13800935368411
H        -0.23869763106327      -1.81632573934802       0.33642665243790
H        -0.74313751961272      -1.28415659027717      -1.29567574705544
H         0.99201705924017       1.74673827942928      -0.24590783475661
H         0.75368988788344       0.55254693263343      -1.54739451445776
H        -3.68603124859166       1.56537916180018      -0.76543172493926
H        -3.27229142004455       1.07664728783501       0.89540598567298
H        -2.50599334559461      -1.48579651021870       1.23279572354514
H        -2.53804554050462      -2.52984123901360      -0.21924538747177
H        -4.36776183349498      -0.80501493175195      -0.23166437147238
H        -3.26692653917867      -0.67250091829500      -1.64895467176876
H        -1.53560491019468       0.43342886592116       2.07273814854756
H         0.08099590123437      -0.27907410431251       2.11414224734415
H        -0.11520101143396       1.49981665996352       1.88111669850485
H         1.84626491546499      -1.22704274377712      -0.14546751381990
H         2.08168905078465      -0.02807275557996       1.18702926141888
H         3.44927886830902       1.39729743080837      -0.33467766917192
H         3.21913602749012       0.19992053503050      -1.66470910287361
H         4.35381565017542      -1.55521009417693      -0.28916133432099
H         4.57810004815390      -0.35824387558343       1.05223754302974
H         5.40791082741459      -0.11071943171498      -0.53084810951997
B         0.46154345025787       1.92797858832675       5.30464059069949
F        -0.40031055722117       2.86808888193142       4.67929094949064
F         1.80937288304934       2.35183052109183       5.16008861981888
F         0.29789320236991       0.65598474157384       4.69603933891788
F         0.13956452570969       1.83471045167116       6.68473002807703
