40
C12H26ClN optimized with ADF in AMS.
N        -1.42938737558076      -0.41148099960685      -0.21249558517873
C        -1.71667752224880       0.96171947604321       0.38462289840979
C        -2.35383645649464      -1.44644648187103       0.42142950172119
C        -0.01690694625329      -0.83017299112413       0.16683321071292
C        -3.18343071392410       1.34409908609593       0.29317711007963
C        -3.82042870895435      -1.06746341957646       0.33437589977923
C        -4.05770844150933       0.29673545337360       0.98084818888369
C        -1.59066823910674      -0.39690322667156      -1.69056252158959
C         1.08769472818442       0.05792029190517      -0.36718651779586
C         2.43325515531686      -0.43909642332452       0.16351956658802
C         3.59953113318916       0.41251251990582      -0.32573043304361
C         4.94654417785210      -0.07178220778809       0.20304343549833
C         6.10818363973524       0.78756732718926      -0.28418558911146
H        -1.07564943139784       1.67467102425690      -0.15108420989203
H        -1.40736567440251       0.86484740594236       1.44989321709422
H        -2.03052203118131      -1.48074560813250       1.48576845870818
H        -2.13031654416004      -2.39815818244527      -0.08546160895835
H        -0.02669487609096      -0.83716788780068       1.27943426332997
H         0.09548363345740      -1.86212537082342      -0.20405363577852
H        -3.28419989504309       2.32335092815847       0.79134925407320
H        -3.50326273157082       1.49295854194571      -0.75473999017870
H        -4.18842850285312      -1.07345382883856      -0.70812675224689
H        -4.38147066536727      -1.85402679268651       0.86696120459939
H        -3.77031727948826       0.23966010925160       2.04620556506867
H        -5.12185877421355       0.57594850785069       0.91894311325135
H        -0.96545756896935       0.39778103841950      -2.11266882422930
H        -1.27589124152047      -1.37157427518919      -2.08508912166606
H        -2.63853983154148      -0.21325239006332      -1.94548774381750
H         1.11930160125918       0.06759212915251      -1.47084311991812
H         0.94679048353325       1.09559616146657      -0.02570345570035
H         2.40217813376385      -0.43532310551885       1.26733464828345
H         2.58918723820795      -1.48925263904857      -0.14499155732941
H         3.43924221362170       1.46207161556283      -0.01516164097151
H         3.61762492833522       0.41451179351498      -1.43256965349677
H         5.09769892295950      -1.12194074392813      -0.10561202265752
H         4.91580467177707      -0.07509522749388       1.30722046494690
H         6.16670411531671       0.78025616178813      -1.38445448108736
H         5.98081405870245       1.83367905277767       0.03615650528455
H         7.07173911639521       0.42920789091196       0.10791946358369
Cl       -1.07265863133519      -0.43019881498137       3.32068847675127
