35
C9H17F6N2P optimized with ADF in AMS.
N         2.16484233279312      -0.31701651552056       1.46675769943744
N         0.54255612936911       1.04205283445139       0.99803352149020
C         3.38397849958190      -1.12566164486421       1.28529296688890
C        -0.33712515421359       1.92849077162931       0.22042086630605
C         1.56528360496515       0.35369821019774       0.47609558692799
C         3.14069645634665      -2.30717670749220       0.35519909114219
C        -1.47309386677399       1.17003739305641      -0.46010430452063
C         1.50450394926372      -0.05893904214053       2.65029358216109
C         0.47955552878888       0.79534670669880       2.35618038578127
C         2.03172144608981      -3.23486712674628       0.83519585697217
C        -0.99486104254259       0.15980753540409      -1.49851973676679
H         3.68171259156421      -1.45759990318567       2.29133985290284
H         4.15141327006360      -0.44865930809543       0.87920597954408
H         0.30894866143405       2.42939995831395      -0.51676341715335
H        -0.72040163996647       2.68375768340102       0.92212548182969
H         1.88672357277355       0.36578820206570      -0.56164205037562
H         2.92956749253111      -1.92014643092340      -0.65445341693953
H         4.09725182833160      -2.85092836646648       0.27671653393486
H        -2.09641600177403       0.67595067757788       0.30613216430234
H        -2.10759020762202       1.93189660197011      -0.94440088613968
H         1.82593205360206      -0.48653002823718       3.59180266914751
H        -0.26743649375757       1.25647435344930       2.99026561862659
H         1.06787750050178      -2.70461737299951       0.90484007485165
H         2.25987101944029      -3.65553261391234       1.82839174757820
H         1.89721668310151      -4.07373118850068       0.13631788128223
H        -0.44271408849356      -0.67071144768517      -1.03145109997273
H        -0.33157724020285       0.63553615303067      -2.23823711660403
H        -1.85133079042898      -0.27908275690247      -2.03142988128418
P         3.78494895293284       1.68249873192785      -1.98583257354468
F         3.86336836610859       1.67332932096137      -0.30749836864697
F         2.15845541113363       2.12045601650906      -1.85337070991914
F         4.21452643805915       3.25593623381050      -2.00091666911603
F         3.63756573339690       1.64238743474186      -3.61080295286422
F         5.33940166990298       1.18092350295215      -2.05651506714494
F         3.27387138619946       0.06652522042293      -1.91022405891476
