48
C12H26F2N2O4S2 optimized with ForceField in AMS.
N         0.98291298957949      -0.31049520813091      -0.00095073429943
C         2.06261311883563       0.06202251761123      -0.96704019511691
C         1.63906713483367      -1.23679006140806       0.97152889418966
C         0.49660442054633       0.90644986460033       0.72800962130465
C        -0.11487474425016      -1.02075964501261      -0.73528194443980
C         3.26781554445873      -0.81982472530772      -0.69899597236379
C         3.13792877723368      -1.16578343187338       0.75701544349202
C        -0.23855811260773       1.94042528980817      -0.15862381558143
C        -1.31016747677015      -1.45361749737023       0.14712193604896
C        -0.56122555174865       3.20744852927523       0.64362704552280
C        -2.33305365058587      -2.24156789895973      -0.68080694961596
C        -1.29241917476525       4.23748559867197      -0.21258588093507
C        -3.49025136193280      -2.73259668197749       0.18422495420127
H         2.39928224289288       1.11619107096519      -0.83893389479260
H         1.75485672947778      -0.03880396151550      -2.03304338960144
H         1.34253116148342      -2.29610849650098       0.80525912974371
H         1.39793262668094      -1.00618993329087       2.03439746577793
H        -0.18184767303398       0.61786401012657       1.56096253151000
H         1.36032728802352       1.41411187972545       1.21780389580918
H        -0.50195019124839      -0.38729597054504      -1.56367142214300
H         0.29904340715443      -1.93065741053650      -1.23025109648208
H         3.20426005394441      -1.74513913506076      -1.31367909635662
H         4.22419995533163      -0.29398479985143      -0.91103630333206
H         3.57186094273333      -0.35205523161164       1.37947305071556
H         3.63892550608161      -2.12927814824995       0.99566899153592
H         0.38422390878372       2.21693930540346      -1.03511757913479
H        -1.19378108849495       1.51404574715702      -0.52973454583426
H        -0.95972253686532      -2.08603950152810       0.98966118479615
H        -1.82362268905957      -0.56417029553160       0.56679248408273
H         0.37948208784281       3.66175145246248       1.02424752069288
H        -1.20208833316754       2.94482724771267       1.51364753959265
H        -2.73743054743900      -1.59402922953000      -1.48900944043963
H        -1.84166905743487      -3.11734712634208      -1.15392030171098
H        -2.24797519711918       3.81692082543037      -0.59222623312794
H        -0.65863021661619       4.54511171552399      -1.07146291096313
H        -1.51902387152476       5.13521874058678       0.40061480192405
H        -4.03876434050045      -1.86991677791386       0.61897178447238
H        -3.11351521467759      -3.38045387606515       1.00434677579700
H        -4.19390475763935      -3.32401121611794      -0.43889006396902
N        -0.73039906452037      -5.23430718180107       0.11958679739162
S        -1.00373467827959      -6.34599657398518      -1.04956767919516
S         0.54865860075259      -5.35947714382002       1.13129913565061
F        -1.64919599592334      -7.72576195537551      -0.35543056347581
F         1.95257801955646      -4.99446188788776       0.29489657485697
O        -1.97563476960895      -5.79392609303358      -2.05253381719005
O         0.28532677701874      -6.70119875610810      -1.73568416567610
O         0.64700667495420      -6.76234915825039       1.66070761824183
O         0.38168718501400      -4.39937625076777       2.27380005982652
