39
C9H16F6N2O4S2 optimized with ForceField in AMS.
N         0.83898360919021       0.00064534663362      -0.03544277240972
C         0.08210050213155       1.22867402126818      -0.41709085089377
C         0.08127629491951      -1.22854159509129      -0.41211850494772
C        -1.35110649072645       1.25919563180409       0.14192704259027
C        -1.35284968237435      -1.25556439908369       0.14655047747838
C        -2.11741124325928       0.00210007624590      -0.26254938009187
C         1.16169695962189       0.00320132812704       1.41527530189712
C         2.12368430259091      -0.00048742494085      -0.77825078876863
H         0.00771752008503       1.30474935942728      -1.52701194843718
H         0.61659237610256       2.14239566663304      -0.07085084525259
H         0.61540145212715      -2.14108483792495      -0.06204044884234
H         0.00762206990523      -1.30935472580453      -1.52174405579341
H        -1.87945498565071       2.14827788279649      -0.26480916160011
H        -1.34233095720117       1.36480666605192       1.24701431317257
H        -1.34453817288832      -1.35866968552894       1.25192649059263
H        -1.88182723244873      -2.14553929214948      -0.25752774609862
H        -3.11542714770482       0.00746483956053       0.22230397977355
H        -2.27517934887074      -0.00023684532936      -1.36330396388537
H         0.25462596298916       0.00275630289236       2.05061780387676
H         1.75703724143332      -0.89525376545670       1.69297262546739
H         1.75471853615315       0.90396520529626       1.69037900890820
H         1.95583715869213      -0.00247502910528      -1.87880955902999
H         2.73035206059170       0.90050037761514      -0.53269598667412
H         2.73110845381842      -0.89990819338079      -0.52923802435361
N        -3.45223495316286      -0.21520627063796       5.33309548038509
S        -4.16722148581575       0.69811663995841       6.49178526680675
S        -4.06192265402112      -1.65329919028252       4.83399142198991
C        -3.47518124031638       0.27704903298585       8.07804589497899
C        -4.97867466181151      -1.40422630602531       3.32896894287461
O        -3.89565239980255       2.14974891536773       6.21537167793590
O        -5.65175392352598       0.46049932640404       6.51248549107277
O        -4.96545871011721      -2.24341488349159       5.88086563108841
O        -2.92913882082407      -2.60049996339894       4.55662831298978
F        -4.05348708569280       1.05976167718784       9.05916689897499
F        -2.11149511881338       0.50001641777968       8.05984763485937
F        -3.71700966918725      -1.05500971955294       8.35367956525239
F        -5.50881943446392      -2.60667160308222       2.90162443800424
F        -4.13462490829515      -0.90639530077182       2.35731971479790
F        -6.00269922357743      -0.50350755389625       3.55025667691107
