35
C11H20N2O2 optimized with DFTB in AMS.
N         1.37054369465223       0.08138106038653       0.15002104112287
N        -0.63267351962415       0.28520792070281      -0.60471169227238
C         2.57215370251764      -0.45393382426883       0.77992662195902
C        -2.02535539985853       0.00089959387961      -0.91529484305482
C         0.23845226394345      -0.57817836749938      -0.06882681370755
C         3.78319305188177      -0.29895562634717      -0.13818477469287
C        -2.93921658421674       0.53939396964321       0.19117005916659
C         1.23530219213535       1.38679955598034      -0.23198929383684
C        -0.03201130172244       1.51712365693988      -0.70522423176727
C         3.59305227188387      -1.01229210274544      -1.47463307046175
C        -2.67845514391115      -0.13536031014694       1.53549589550449
H         2.38465261343413      -1.50159282444237       1.03228620986468
H         2.72242375919856       0.13979604696250       1.69239549457133
H        -2.13790418424462      -1.08196246521805      -1.02017072757004
H        -2.26534540928872       0.47841172464452      -1.86941459179620
H         0.05190456507798      -1.61848954385089       0.13442369814911
H         3.97013248174311       0.76673536428241      -0.30197400495077
H         4.64745321187068      -0.71666952339691       0.38551527600819
H        -2.78902788769422       1.61867901033493       0.28457163491627
H        -3.97422866053197       0.36536231430301      -0.11643802155667
H         2.08395361075556       2.09452652852678      -0.07584430287180
H        -0.55313893246277       2.36849169857771      -1.10547728337640
H         2.74848410181067      -0.58728019884258      -2.01932428762710
H         3.40741235000500      -2.07754078000368      -1.32296812441765
H         4.48900736043504      -0.89911074572296      -2.08433416972515
H        -1.65745753764481       0.05326948071636       1.86766934215952
H        -2.82865245378023      -1.21317869777410       1.45978674662906
H        -3.36383382442271       0.26036797038053       2.28395928628740
C         4.05228185386258       3.88963787141999       2.51126908026514
C         3.27562941838586       2.84762150922041       1.67528008837203
O         3.46966815379314       2.87694272035527       0.43353755280736
O         2.51305219212800       2.07263557595004       2.28171715755288
H         3.61421724107831       4.87166127342490       2.33485932812641
H         3.98924991863490       3.64908529675712       3.57070632518115
H         5.09296180007517       3.91139196067045       2.19156156354177
