40
C12H26ClN optimized with DFTB in AMS.
N         0.99826787261220      -0.09570695642310       0.07641664399006
C         2.07279252983828       0.30234988663908      -0.89541912919787
C         1.76947065646707      -0.86677707672349       1.10676151053462
C         0.37220123258509       1.10592307183645       0.71908176825846
C        -0.00618212891425      -0.95647805486727      -0.62745599741723
C         3.00896005855736      -0.89958189171562      -0.98194370409341
C         2.79012151102165      -1.68251824141668       0.32193571931239
C        -0.40758411636765       1.99275659172197      -0.24762452873398
C        -1.17656428978467      -1.41662775915317       0.24000776666356
C        -0.60642576210282       3.37567781882952       0.38667311114535
C        -2.05909845041895      -2.38058664167477      -0.56269554816810
C        -1.40190071036297       4.29651092136686      -0.53532006357115
C        -3.25374567947325      -2.84984797165490       0.26476218064929
H         2.59263500471020       1.15884909767234      -0.45376192151477
H         1.62851766704458       0.57456370412436      -1.85248403517597
H         1.09416922135529      -1.46803646823940       1.71357201438035
H         2.28105838853448      -0.12464321956379       1.72895684459164
H        -0.27180772782846       0.74811484266957       1.52530166975497
H         1.20278822925067       1.67082409569852       1.16017052704324
H        -0.38261258049501      -0.38242922476923      -1.47791325257011
H         0.53059854438198      -1.82619291185560      -1.01340586343237
H         2.78043097203154      -1.51914531400842      -1.85252994894289
H         4.04038192247919      -0.55464321120595      -1.06922718228739
H         3.71366416677111      -1.76485197225699       0.89677050163950
H         2.42275215963864      -2.69087326040854       0.11588611090586
H         0.13976204151380       2.10623696429136      -1.18706776288053
H        -1.38454420564925       1.55312214155216      -0.47419142502792
H        -0.81522758102521      -1.92388833995145       1.13821139917555
H        -1.77786143987653      -0.55995073457092       0.55421314219437
H         0.37140944800137       3.81986299059145       0.59408004179087
H        -1.13482810360609       3.26456114218681       1.33902714781105
H        -2.41550078639315      -1.87808520474245      -1.46799674203785
H        -1.46462380315396      -3.24682283492617      -0.87151665915573
H        -2.39025793445255       3.87997213290099      -0.73603910805124
H        -0.88133652035186       4.42972558284066      -1.48458086926302
H        -1.52458788169589       5.27271246035111      -0.06674642507174
H        -3.86822650051902      -2.00029799851958       0.56470479222864
H        -2.91655051447964      -3.36966362371346       1.16219167302304
H        -3.86659913133443      -3.53239203341441      -0.32348691796562
Cl        3.35816750169115       1.91084599830217       1.58147247236608
