38
C12H22N2O2 optimized with DFTB in AMS.
N         1.83827407499937      -0.51803520903728      -0.43886161985983
N         3.23882954746534       1.10904790407356      -0.10972649372988
C        -0.43864089352143      -1.50441555618428      -0.42079279691697
C        -1.15391329486465      -0.15144211418710      -0.42881414605964
C         0.92762250607056      -1.43990554296417      -1.10845046479444
C        -2.48445228729207      -0.21672096115405       0.32532686535342
C        -3.19115957994622       1.14241902304583       0.30374120274416
C         2.43683404824333       0.53291103580545      -1.04513717067484
C         2.06415727393340      -0.43883643491827       0.92988562301795
C        -4.51746049340451       1.09726445291305       1.06078597491418
C         2.91490800599761       0.58401908110101       1.13595851968922
C         3.83652686896270       2.41581889901143      -0.32256050168820
H        -0.31859521222788      -1.85801627507896       0.60860646043938
H        -1.04184896888250      -2.24462125563940      -0.95604777071359
H        -1.33645186626319       0.15115590884447      -1.46415201831519
H        -0.50995798573442       0.60383759447042       0.03136474543997
H         0.82115592416216      -1.08972630133873      -2.13922022107364
H         1.38386547227213      -2.43706512879829      -1.11575463891306
H        -3.13159643035972      -0.97263512476570      -0.13364275795527
H        -2.30361967288812      -0.51855572892700       1.36332799792194
H        -2.53943937345006       1.89790052227702       0.75550553185105
H        -3.37499644626545       1.43917162160343      -0.73446504242051
H         2.69194649425674       0.50944077621579      -2.09497186940299
H         1.62423666543439      -1.13552095363780       1.62095909832025
H         3.35907545098246       0.96335553696800       2.03943158733637
H        -4.35352351999837       0.82267576653386       2.10404818047406
H        -4.99973839946665       2.07479432937967       1.03097384670441
H        -5.18966126969877       0.36460842165940       0.61149079003186
H         4.48995811877327       2.65088501859460       0.51596593040648
H         4.41573511040433       2.39811892174442      -1.24636157725593
H         3.04417024456607       3.16352921650314      -0.40575755781239
C        -0.43035871364119       2.89516513799024      -2.83694808699308
C         0.55269374960478       1.77092314691525      -2.48963461704041
O         1.09764483937627       1.89470372511106      -1.33844463906762
O         0.75927236451681       0.86817291263228      -3.29060852848323
H        -0.96711256582350       3.21369895050440      -1.94604276468126
H         0.14069625959805       3.73798759988011      -3.22470022550066
H        -1.12595556469106       2.55236384215317      -3.59933913609208
