37
C11H23NO2 optimized with ForceField in AMS.
N        -0.41254077759183       0.16469143391960      -0.06817451975920
C        -0.97042016283459      -0.90414092352469      -0.95320434342878
C        -1.47653408082579       0.41881687938424       0.95164227903084
C        -2.43408336348310      -1.09844191783775      -0.60454620001037
C        -2.51970065873855      -0.67578185903505       0.83496090507297
C         0.82890628828189      -0.32596810214308       0.61549604577050
C        -0.16501659077861       1.40391612884814      -0.87465221996200
C         2.01942936081551      -0.59558122138966      -0.33663432013465
C         0.44083367450431       2.57364096162165      -0.07714998296759
C         3.17134688504494      -1.27041455536829       0.40202527260353
H        -0.46994601615656      -1.88714315656191      -0.79500695613457
H        -0.86840500000105      -0.67529013682637      -2.03863579185353
H        -2.00447969357091       1.38486214516749       0.77814001088066
H        -1.08728033139202       0.46087430099376       1.99458994051219
H        -2.75571272945677      -2.15439816592432      -0.73856905996015
H        -3.06464779832999      -0.43189914838301      -1.23380487455086
H        -3.53742316006910      -0.30859042835882       1.09199382836674
H        -2.24964159734269      -1.52782166356820       1.49728197615495
H         0.60008264324886      -1.26467700980426       1.17222381031945
H         1.16187123170212       0.40051320923592       1.38947331454871
H         0.50609012946756       1.18968745846405      -1.73496438011394
H        -1.11908111373201       1.75796220958465      -1.32897735438365
H         1.71477862364522      -1.24757435587846      -1.18099135080268
H         2.40250005534346       0.35682361213639      -0.75756864212219
H        -0.14189028593875       2.79102118896138       0.84051439626728
H         1.49382500253868       2.36648667492892       0.20171008584345
H         0.43895663528771       3.48551508247555      -0.71045945987857
H         3.53519093928611      -0.61923974537758       1.22517449110997
H         2.84492542488604      -2.24572911794684       0.82128301337050
H         4.00951720470775      -1.45190722248248      -0.30331790859860
C        -6.67455997564615      -0.61473469021774       2.64576509542678
C        -6.99306588385912      -1.36717736043831       3.89919360524313
O        -6.26330949972022      -2.27371577879386       4.26718574870524
O        -7.98046078610215      -1.07903520352428       4.55642146739545
H        -5.67775122360056      -0.13548616838068       2.74141039991456
H        -6.66177644258269      -1.31424750970987       1.78376565144155
H        -7.43500600730694       0.17320790495376       2.45726421698291
