56
C16H19F18N2P optimized with ADF in AMS.
N         0.48466197662266      -1.93119257445867      -1.67854354027790
N        -1.30101543050584      -1.03221237809259      -0.82778441619253
C         1.89660007086719      -2.18706548486924      -2.00769052736922
C         2.33364078643831      -1.46744897671799      -3.27986500253994
C        -2.18205328787367      -0.13603916461318      -0.06501462790420
C         0.04027339216192      -1.00358977232729      -0.81723279992176
C         2.31532091194966       0.05576018686540      -3.16610227943335
C        -0.59806720838321      -2.54905127947911      -2.26552384431337
C        -1.71969863056872      -1.98356493164964      -1.73350217962383
C        -2.72241793632159       1.00080486321514      -0.92693845733017
C         2.68352912622539       0.72445758170772      -4.48917192924978
C        -1.62540505993839       1.90719725874262      -1.47308840824186
H         2.48901305537639      -1.86369711305399      -1.13742865340215
H         2.00100694425478      -3.27807726521290      -2.10181437990198
H         1.69753490180096      -1.79312945419804      -4.11836903901850
H         3.35747331610062      -1.81430268512047      -3.50675968480858
H        -1.58959180565319       0.24926140224348       0.77911518598875
H        -2.99128322626843      -0.75960034340787       0.34381748923440
H         0.65689018525196      -0.34345025460239      -0.22093902251887
H         1.30708881752291       0.39227863059702      -2.87109886432294
H         3.01415898562249       0.37415065165193      -2.36872956425734
H        -0.49256848528515      -3.29132867225724      -3.04673142187437
H        -2.76526876844022      -2.15439136556328      -1.95945332237155
H        -3.31619668495020       0.57767237546781      -1.75267435645351
H        -3.42165598694742       1.57375571681301      -0.29381669530943
H         1.97016933573655       0.43771018311645      -5.27589316495735
H         3.69242354432858       0.42512834584547      -4.81554923758701
H         2.66308331968823       1.82033335514728      -4.40062469466431
H        -0.93900799443153       1.35274307752538      -2.12896565442423
H        -1.04832297506375       2.37235832083513      -0.65660401493971
H        -2.05842626779808       2.70969210519914      -2.08651111211418
P        -2.39038837943849      -1.69343339735172      -6.01197403070252
F        -3.01227258177259      -3.06179881210859      -6.71036961672337
F        -2.38525522542099      -2.46823239130543      -4.51046928897011
F        -2.35404202622666      -0.86574197161113      -7.44887374374801
C        -0.58338579244769      -2.43518943669020      -6.42136906323548
C        -4.28098797329679      -1.13152185758524      -5.76228290646009
C        -1.62774895344835      -0.10350438062584      -5.03298378930236
C        -0.46112482755286      -3.51861668238195      -7.54283978974497
C        -5.10940815012550      -1.76652115843440      -4.60182606762952
C        -1.32195914165376       1.25484535694412      -5.73905198490939
F         0.00420198075442      -3.05517508169314      -5.31431486381878
F         0.28206701033521      -1.43532243693036      -6.80556117081789
F        -4.97388949953523      -1.45565294930442      -6.90559017126179
F        -4.42973501354494       0.23163131193207      -5.60924784121224
F        -0.42514639731628      -0.46363964213858      -4.43303271433588
F        -2.45899940994920       0.21913083302235      -3.97442474457336
F         0.86864562692499      -3.74718835937213      -7.78390389291449
F        -1.02149457311594      -3.11787047445797      -8.70058045073076
F        -0.99933509145316      -4.70026436020740      -7.16519356563594
F        -6.40170655938799      -1.34571621819143      -4.67964516081232
F        -5.10725163835143      -3.11485636848442      -4.64850698171148
F        -4.65172332067228      -1.38502462674244      -3.36785250648696
F        -0.85274755822611       2.14329915388126      -4.79847936230437
F        -2.41574371901557       1.80338834725524      -6.29879965450399
F        -0.36518309878203       1.13481925023263      -6.68204584755318
