41
C11H22F3NO3S optimized with ForceField in AMS.
N        -0.56143296078938       0.29497616381464       0.14737619145817
C        -1.54992757557085       1.22578371580483      -0.48357181193199
C        -0.90218402934657      -1.11964750695057      -0.19244648139547
C         0.78029226030024       0.65455658100529      -0.42099380352834
C        -3.01864842826842       0.90066222264716      -0.15889633708831
C        -2.35477937830881      -1.49960856248975       0.15138679873665
C        -3.34353697633965      -0.54651446432438      -0.51363898170459
C        -0.54444924319592       0.49932067269686       1.62037896196943
C         1.98494778992990      -0.16506321330560       0.10452519016322
C         3.28428592511754       0.32211960833881      -0.55130157230112
C         4.49263809563041      -0.46463250186176      -0.05270646899810
H        -1.45050263334018       1.19714540220007      -1.59404456575717
H        -1.34916100248853       2.27774620426049      -0.17622335280784
H        -0.24170922045173      -1.82894119253520       0.35141327182786
H        -0.75004451673236      -1.29995403371262      -1.28158029952811
H         0.99551092242867       1.73031914628685      -0.22007946593691
H         0.76310097312446       0.54367365749445      -1.52998428669018
H        -3.67434664318656       1.57204630691874      -0.75435874158778
H        -3.24865703336978       1.09954866402260       0.90805078939643
H        -2.50929116607273      -1.50374422192727       1.25104732838980
H        -2.55408228797127      -2.53215492075639      -0.20791057255553
H        -4.37512967784103      -0.78675527703463      -0.17736836105170
H        -3.30050834031484      -0.67691996451261      -1.61729810997057
H        -1.54348714904165       0.37481733286719       2.07958303262693
H         0.10845203051841      -0.23923516498941       2.13068818603542
H        -0.19559440934356       1.52411920985992       1.86791597207539
H         1.85643498136300      -1.24104260366073      -0.13404295096309
H         2.09272399984905      -0.04576649438915       1.20210109620782
H         3.43978035552219       1.39857261978992      -0.31933001946745
H         3.21330329815772       0.20777092122216      -1.65493691290238
H         4.37966758452172      -1.54203671868933      -0.29763574140390
H         4.60492386261079      -0.34568411174623       1.04598972018914
H         5.41118178744937      -0.08257390898516      -0.54628597479999
S         1.25601799028913       3.56032499949290       6.22116566728324
O         2.59083824953028       4.10222126384848       5.68949183180320
O         0.29661334721902       4.74246078220128       6.02050546148309
O         1.46871822602784       3.53611745184753       7.74149945882940
C         0.71364095475103       1.99408403681277       5.48685820029194
F         1.65098540493827       1.01197898760046       5.74156006784209
F         0.57985765809330       2.15737954813419       4.12464228913593
F        -0.50222657619851       1.62349183560320       6.02793584802538
