21
C5H9BF4N2 optimized with ForceField in AMS.
N         1.10643860072675       0.00512948022913      -0.00429801249500
N        -1.11417008472181       0.01299056568704      -0.00367082310635
C        -0.00650631336210      -0.75292961427628      -0.00482339749627
C         0.69112162544648       1.28712703775712      -0.00160578548645
C        -0.68906953352146       1.29195869570213      -0.00188826698334
C         2.48645671020469      -0.45918942742819       0.00392806581843
C        -2.49803943519051      -0.44157111201039      -0.00217738746988
H        -0.01008260783222      -1.83576519802141      -0.00314221568728
H         1.34205715233956       2.15171837651844       0.00141560077069
H        -1.33335429220671       2.16128098124490       0.00057667224270
H         2.52415180966223      -1.56918226377353      -0.01301915372879
H         3.01700894368238      -0.06640132587604      -0.88886224338231
H         2.99096292153210      -0.09814666200196       0.92359023117466
H        -3.01430994298304      -0.05876867754863       0.90297843183988
H        -3.01473956285953      -0.06225640938254      -0.90849626171287
H        -2.54269137106680      -1.55162833692680       0.00004653670036
B         5.21874130584000       2.69043798221891       0.67174574806025
F         5.20695639261322       1.27271065667334       0.74184763480914
F         6.55684258244532       3.14216748177276       0.52119725943158
F         4.66804679865690       3.22877619659213       1.86537776514269
F         4.44567626799458       3.11718611364986      -0.44102834774185
