58
C18H34F3NO2 optimized with ForceField in AMS.
N        -0.01211687058283       1.98929878075407       0.00897741083332
C        -0.68618155561532       2.89785364969144      -0.96970368630980
C         0.64566757359802       2.90220778481254       0.99443823675331
C        -1.02993968502975       1.14510776800293       0.71670784842658
C         1.02033161224895       1.16880592139248      -0.70502357991721
C        -0.21174106003480       4.31467759844133      -0.71004730328095
C         0.13865755286908       4.31055255822400       0.75095570273237
C        -1.77143937846526       0.13127098220781      -0.18845644154963
C         1.77959919888354       0.16173585730400       0.19245483330664
C        -2.87324917032510      -0.58985034699622       0.59872292553350
C         2.88877607025024      -0.53873462523134      -0.60225703810355
C        -3.62541346966921      -1.59289170652624      -0.28415089120394
C         3.62430620651852      -1.57233011855201       0.25863347887519
C        -4.69062383208148      -2.34246712588528       0.52502237783981
C         4.71531132799296      -2.28096117551681      -0.55227300249668
C        -5.44606956410056      -3.34171037295621      -0.34654726083397
C         5.49530980342810      -3.26665861167015       0.31256277721419
H        -0.49011743491588       2.62583012058240      -2.03164321399394
H        -1.79366595124169       2.90231469763042      -0.84838937426954
H         0.45991639882916       2.61487106895928       2.05417765818055
H         1.75233714304568       2.93235906826438       0.86863753701129
H        -0.55799819655604       0.58603241599442       1.55414107229662
H        -1.78838995436683       1.80582795199360       1.19800743232257
H         0.55721438062624       0.60746649526256      -1.54593509111562
H         1.76716447504529       1.84593226747819      -1.18181598421372
H         0.69690253939924       4.52601698307055      -1.31620020075742
H        -0.99873198756462       5.06623202059060      -0.93788624119070
H        -0.77468267292129       4.49392577384003       1.35919784427564
H         0.90801100406956       5.07752475217055       0.98729690760374
H        -2.22720148379481       0.64618835300752      -1.06007897457418
H        -1.06257409355790      -0.63396261414712      -0.56740705000744
H         2.23228621112662       0.67899468575314       1.06450143979094
H         1.08300231164255      -0.61515102221913       0.57007180412613
H        -2.41347281730073      -1.12846470022485       1.45679316265931
H        -3.59382291120872       0.15812341871471       0.99685026742364
H         3.61592998594724       0.22014199958731      -0.96695048814303
H         2.44024374538362      -1.05023531032490      -1.48256246550236
H        -4.11351763417320      -1.04964884063641      -1.12332839829416
H        -2.90391015945964      -2.32537194098512      -0.70885153863897
H         4.08276480102456      -1.06345796004216       1.13410356678903
H         2.89788927821810      -2.32706411557834       0.63269949931865
H        -5.41753476235334      -1.61763238667932       0.95215257812853
H        -4.20763076545372      -2.89178369379768       1.36240571510024
H         4.25218072287153      -2.83317177295992      -1.39875733103551
H         5.42297567677364      -1.53210394397054      -0.96805282189085
H        -5.96614904792912      -2.81534768432467      -1.17487840713832
H        -6.20359102589569      -3.87137165056268       0.26889004829211
H        -4.74502375005849      -4.09211477694241      -0.76994749898012
H         4.81246248332838      -4.03396649215745       0.73532150579509
H         6.26270619291194      -3.77642004808581      -0.30737357147723
H         6.00628563407430      -2.73139466380717       1.14099513033751
C         7.42934039961208       1.47386258195307      -0.27513900520374
O         7.43629281319408       0.28323379124258      -0.54355439255820
O         8.20250034365855       2.22524481134967      -0.84681455256744
C         6.48047516785230       2.01824101546471       0.75083587519976
F         7.19689617251357       2.62399132971978       1.76660227266447
F         5.70933648760803       1.00362951878293       1.28879751901376
F         5.64803008951036       2.95175954183695       0.16147255840373
