54
C14H30F2N2O4S2 optimized with DFTB in AMS.
N         0.03033724717814       1.84596143209070       0.18288184523369
C         0.73364171887035       2.77067897695890       1.15860205547759
C        -0.63464202557239       2.74331015653077      -0.83312787695212
C         1.02870151251754       0.98021687760275      -0.52510371352105
C        -1.00244637919228       1.03644638537021       0.91297755628218
C         0.51538985940245       4.19472238126677       0.65746445874757
C         0.16185218129194       4.03559090545736      -0.81703605334905
C         1.72490825735752      -0.04372242183865       0.37034526112041
C        -1.80584522290452       0.09937469827062       0.01657206132771
C         2.87285074179304      -0.70473227694960      -0.40231307372938
C        -2.97649902789872      -0.47777470614249       0.82218444012108
C         3.57475243715250      -1.76211844947055       0.45581084462699
C        -3.81206525058731      -1.43697309853448      -0.02990957819961
C         4.71902726952729      -2.42496278587755      -0.30834988457083
C        -4.99203810159739      -1.99348141470859       0.76460394195163
H         1.79294749779214       2.51217701086514       1.17853287890355
H         0.31232315467172       2.62075079313141       2.15187785942823
H        -1.65567497744302       2.92709163358117      -0.49932935669247
H        -0.65122173966426       2.24870582703673      -1.80379951014162
H         1.76444739544377       1.65412253804487      -0.97244876612989
H         0.50332746891439       0.46270902786654      -1.33128117327247
H        -1.67223843575437       1.75599266075541       1.38606659305237
H        -0.49061406983922       0.47596003510248       1.69769469530879
H         1.40947551470593       4.80088095476419       0.80596939980231
H        -0.31858315992974       4.65469187524156       1.19081211572234
H        -0.45153011647090       4.86306987735372      -1.17420861087372
H         1.05918590207463       3.95695538202973      -1.43696416706830
H         1.01533313728819      -0.81397658602824       0.68311412934934
H         2.12208068770995       0.43400358604298       1.26960313056448
H        -1.17799297591438      -0.71613356353763      -0.35590052421859
H        -2.20055198844453       0.64573785787527      -0.84375284493593
H         3.59521686303842       0.06025298384700      -0.70641329008373
H         2.47748655833284      -1.17194436981125      -1.31051751238032
H        -3.60667083620463       0.34482436655196       1.17257841156701
H        -2.58951025155054      -1.00485079986083       1.70068741219443
H         2.84846153163066      -2.52330176464106       0.75930555012134
H         3.96570490108582      -1.29110743051174       1.36372172437617
H        -3.18137100417078      -2.26311113398872      -0.37702212589336
H        -4.18494809782737      -0.90666467804081      -0.91248741690942
H         5.20250228717724      -3.17162918724904       0.32125510156786
H         4.34450555329648      -2.91706719607304      -1.20679025412347
H         5.46279895321504      -1.68337442616319      -0.60241038846419
H        -5.57535364599867      -2.67096666943722       0.14092560732962
H        -4.63966804109077      -2.54169671570792       1.63937589013816
H        -5.64046873571410      -1.18358933311525       1.10016941059273
N        -3.79339992787962       4.53191229826670       2.55780846486073
S        -3.71313134665208       4.33235708842219       0.99351475349237
S        -2.44890831156967       4.31242099837390       3.37476407871341
F        -3.54361979630535       2.68917387570653       0.80523413548054
F        -1.49275611872712       5.55150959485831       2.92151825562568
O        -4.98666871184100       4.60323620612675       0.42550873951125
O        -2.53685726964460       4.82501190244164       0.32955491813177
O        -1.66487424580390       3.15905327386521       3.00938929526960
O        -2.71264307207474       4.54223481948829       4.75139371751661
