61
C17H24F18NP optimized with ADF in AMS.
N         1.54853143941820       0.71150901286020       0.27789922235051
C         2.08883035144353      -0.66960115263860       0.56436390275976
C         2.66553030900918       1.33696047424734      -0.53505903951447
C         0.26848850590603       0.69008075619142      -0.53899617566905
C         3.56708585773921      -0.44695211973386       0.88712865115895
C         3.95445501931962       0.85559454396383       0.13392961447288
C         1.37027855912077       1.48029558759867       1.55488524271232
C        -0.95362382690363       0.16415836997169       0.18801292807575
C        -2.18495354624902       0.34260259612529      -0.70623236854156
C        -3.47624257048407      -0.09409139414325      -0.02014765207684
C        -4.71080896771399       0.17125168200896      -0.87929187065862
C        -6.00909996477938      -0.20070249443710      -0.16911542193830
H         1.95942859309421      -1.24917973379182      -0.36213137051814
H         1.50240094732013      -1.13519102555541       1.36601921804574
H         2.51881051693971       2.42442983579161      -0.56461221970266
H         2.55972700924955       0.93309113829768      -1.55286958473896
H         0.49943107696754       0.07872016760631      -1.42619175479957
H         0.10120863849709       1.72939773935741      -0.85269981668585
H         4.16136738912685      -1.31226115468300       0.56225816378547
H         3.72104973669036      -0.33638068376021       1.97011871383088
H         4.34762530853143       1.61202429524501       0.82812655371058
H         4.72933460213974       0.68079502008035      -0.62485286040776
H         0.70716612460105       0.91863499685726       2.22070160963073
H         2.34866209237766       1.61882005742041       2.02639041340690
H         0.91957350058274       2.44661536405402       1.31617441158811
H        -0.83137328895476      -0.89954085066194       0.46083972021529
H        -1.12585345296041       0.74367245228765       1.10790001913420
H        -2.05330189271488      -0.22209802522442      -1.64859661833688
H        -2.26622613876628       1.41115526369249      -0.97242758076404
H        -3.57812014581143       0.45641186462203       0.93215487506503
H        -3.42379392093825      -1.17040231256587       0.23406143274394
H        -4.73019673845607       1.24299678022288      -1.14710002971862
H        -4.62623844234674      -0.39034224103777      -1.82809521907579
H        -6.12600378885379       0.38589836897216       0.75616990951085
H        -6.88487428181943      -0.00423121145772      -0.80609498614996
H        -6.02070430737466      -1.26873992030800       0.10332405379472
P        -1.06761679672475       4.93475498364783       0.40136456708688
F        -1.74865496548256       4.86634799329685      -1.11305101070726
F        -0.85969082254251       3.24612923382853       0.45419703193070
F        -1.20025328145674       6.57971006785852       0.40426039937952
C         0.62824448301620       4.97800826330279      -0.63104642852455
C        -2.96148989202549       4.62235781134241       1.07805372008414
C        -0.33282249308855       5.09345449192849       2.29026217169198
C         1.01010587876283       6.26345814720447      -1.42524803209777
C        -3.38826430897752       3.77983457927219       2.33419838370097
C         1.08009397312327       5.60431623951279       2.73430670137738
F         0.59719063139538       3.97472943896112      -1.59527293875891
F         1.73783991529184       4.67009625996438       0.14750179983875
F        -3.61458684739232       3.93144176698051       0.06834754501884
F        -3.59972633390252       5.82997752822442       1.22275077730676
F        -0.45423443516091       3.87354708253640       2.94726120259441
F        -1.19397674765441       5.97229804647398       2.90584044482541
F         2.15540112362084       6.01492331249496      -2.13733829950284
F         1.26182852903632       7.30864270855019      -0.61057031694444
F         0.04877071581134       6.61046422187276      -2.30254455417590
F        -4.74290742294019       3.61439740261551       2.29565418054724
F        -2.83587987484042       2.53383726828236       2.31574720145445
F        -3.09950267989839       4.35648285878764       3.51713355618061
F         2.02528485479781       4.62178265293369       2.66131633024633
F         1.02892511461825       5.98346698210360       4.04044913189920
F         1.49091166196539       6.66368595704790       2.01135505745253
