43
C11H24F6NP optimized with ForceField in AMS.
N        -1.38127415799187       0.17309550567878      -0.07756966321370
C        -1.65459552612416      -1.01709860234910      -0.94147481059084
C        -2.48699127526761       0.18354500479738       0.92789401785495
C        -0.06981383595066       0.00839723162150       0.62949079867383
C        -3.01567373927696      -1.57617129273515      -0.57036525455363
C        -3.20207002797901      -1.15044618134474       0.85846186869093
C        -1.42826245950053       1.41835356583049      -0.90994910943034
C         1.16816552200002       0.02632818425852      -0.29950016167273
C        -1.14194022613907       2.71603785286619      -0.13339668836559
C         2.43369912012728      -0.36094205849252       0.47478604400806
C         3.66744022894523      -0.33312014493209      -0.43519799364683
C         4.92821340487620      -0.70969333692933       0.33717917278956
H        -1.62971843267869      -0.78505912451798      -2.03115628311075
H        -0.91608792720491      -1.83577938924028      -0.78041873636975
H        -2.13587508357993       0.37067777445547       1.96874417031642
H        -3.24769837872452       0.96829910233065       0.70759853187987
H         0.06331532671299       0.80328814764831       1.39722999622720
H        -0.07411311475425      -0.95294364516702       1.19379192919387
H        -3.80073489826098      -1.11261210929209      -1.20831284151426
H        -3.05354314431651      -2.68249304425191      -0.67340788081456
H        -2.70884211782099      -1.87963397854522       1.53916575520584
H        -4.27883499245451      -1.05933939688934       1.12006002754535
H        -2.43222651922410       1.51922922596130      -1.38379612291499
H        -0.70955170251563       1.35564589915393      -1.75668836459873
H         1.31447548033785       1.04520788981119      -0.71549550728630
H         1.03377022469292      -0.67721711147566      -1.14754098907164
H        -1.77971149843516       2.80241131054355       0.76979982580183
H        -0.07597251341745       2.77725603791860       0.16610195286535
H        -1.35388567743262       3.58661912617511      -0.78911148059954
H         2.31117519277402      -1.38401595985590       0.89388821335623
H         2.58057452496999       0.35125222267101       1.31673200863965
H         3.53141379724938      -1.05142151141077      -1.27300954428684
H         3.79768671506026       0.68557733362420      -0.86128834152093
H         5.80293575823829      -0.68326320598068      -0.34640252406768
H         5.10233838772873       0.00973189596490       1.16562956726493
H         4.83319092853221      -1.73467862324841       0.75440539977567
P         0.91749783220056      -3.05898715555731       4.22496165655147
F         1.47324193290607      -3.47625981968299       2.65454191489980
F         2.47445722432054      -2.40533923192841       4.53763708276387
F         0.40252770323919      -1.48959666434300       3.75651866127506
F         0.29045321267618      -2.69012238706795       5.78059538713572
F        -0.57642183386078      -3.74341324829450       3.72568977067436
F         1.43481614712300      -4.54534300777874       4.91284743403984
