42
C10H12F18NP optimized with ForceField in AMS.
N         0.02191212318073       0.00862548917541       0.01789555225320
C        -0.90735663381122      -1.09215811225499       0.35608385988501
C         0.68274372372073       0.49170492495859       1.25046889494895
C        -0.73228534407931       1.11947212841688      -0.60385783549711
C         1.04517026997601      -0.48399397796394      -0.93069771210347
H        -0.36321920192293      -1.94475566533996       0.82079191585137
H        -1.68458791327590      -0.75069842768845       1.07559284940441
H        -1.42450680682762      -1.47162808042744      -0.55365305074863
H         1.38664455033267       1.32406549736678       1.02539815846046
H        -0.06646474130502       0.86606826255428       1.98383182084301
H         1.26142405776117      -0.32414384279722       1.73876153423797
H        -0.05377500704208       1.95814247336100      -0.87777752406261
H        -1.24881561356395       0.78156243499209      -1.53022568622256
H        -1.50202374166288       1.51837268661611       0.09413681030979
H         1.75869407120411       0.32560544961332      -1.20358439871481
H         1.63046329053847      -1.32051712667822      -0.48720069402736
H         0.57375183880377      -0.85527806454435      -1.86826285171562
P        -7.01747278507479       1.37186672469283       0.42826478088945
F        -8.03103449902647       2.23727571577856       1.51842098777370
F        -6.62651477513193       2.30374966100918      -0.96810084179596
F        -6.99078617045965       0.37918254099702       1.83360119282956
C        -5.76876455681295       2.67973274878440       1.13135722563605
C        -8.81768202315637       1.23363371688869      -0.27145747093725
C        -6.17407269700407      -0.23736245324028      -0.23205523876795
C        -5.53598336919340       2.70219235863340       2.66705363975212
C        -8.98825127375309       0.55813038294240      -1.64782076946540
C        -4.71022881560078      -0.47949968025816       0.18320020992699
F        -6.20803614734952       3.95283327617576       0.78884579730411
F        -4.53646541117647       2.50912019060342       0.53235870219579
F        -9.36650455994247       2.50588769039202      -0.40821964088420
F        -9.59485324235319       0.51949615431573       0.63010055598197
F        -6.16799844963603      -0.19883329562422      -1.61499039367460
F        -6.91617761960046      -1.34884027624105       0.14415701574382
F        -4.51156850821493       3.59013096778620       2.94436950606453
F        -5.16609607852883       1.47023756504263       3.16287595991991
F        -6.65968828077600       3.13944458615059       3.34528265091314
F       -10.30488723096646       0.70107642532904      -2.05070866860394
F        -8.18850809772489       1.15126974351603      -2.60683184648272
F        -8.72245205720441      -0.79546702423480      -1.58491469783567
F        -3.86561591590724       0.36538550497264      -0.51021610532645
F        -4.35844294370645      -1.77756481278550      -0.14405309619007
F        -4.51897561432591      -0.32119135168640       1.53759421753110
