41
C11H24BF4N optimized with ADF in AMS.
N         0.08008769476192       0.30428843248617      -0.07034461096091
C        -0.69179683460933       1.23126981566886       0.84687906606024
C        -0.81065922934643      -0.07618355737855      -1.23309801075304
C         0.53883851548499      -0.92582481563651       0.72030728177895
C         1.30063805733335       1.04336825620386      -0.64369191575929
C        -2.04301315116985       0.68009721967115       1.28449957747515
C        -2.12053362368701      -0.70896903090510      -0.79464212941782
C        -2.90403630300188       0.25340109678126       0.09745139279736
C         0.98665259810036      -2.11118650028451      -0.11918112198282
C         2.03905524957955       1.96217826132710       0.31658505095836
C         1.55281977650205      -3.19454478052556       0.80297529830193
C         3.34319043553461       2.42965378687305      -0.33563457542776
H        -0.04154185929732       1.43196561702202       1.70834199364062
H        -0.82629600533936       2.16758041137405       0.28138825911113
H        -1.01371482247036       0.86250299874807      -1.77365591181071
H        -0.21918733893627      -0.72818007505021      -1.88941561082725
H         1.36418620027436      -0.58331177724552       1.36672712000714
H        -0.30740187678107      -1.21887209942306       1.35472626266485
H         1.98319471386475       0.25850352718180      -0.99737004749822
H         0.92206405827863       1.61511247247176      -1.50637478556022
H        -1.90881509359838      -0.16488232893914       1.97927224158281
H        -2.53946458254755       1.47499122727184       1.86539297083733
H        -2.69148763496925      -0.95919322837461      -1.70383256623903
H        -1.93461905749526      -1.65970213168399      -0.26760597481700
H        -3.83816292788493      -0.21241741030759       0.44838985648558
H        -3.19034754268668       1.14403989628175      -0.49201099651780
H         0.14414029333309      -2.52632237889040      -0.69871458473857
H         1.78038870754645      -1.80782072889407      -0.81927838030297
H         1.41815798867575       2.83949906987471       0.56455292138949
H         2.29139048726750       1.42759244237892       1.24601550157847
H         1.82879760762276      -4.08089171071102       0.21386479972123
H         0.81057964533884      -3.50571939636187       1.55633390057855
H         2.45339586864247      -2.83436669961625       1.32006351632827
H         3.85871123807436       3.13463674665394       0.33121778960979
H         3.16108552754455       2.93536807416166      -1.29874488446475
H         4.01369707194242       1.57258658665118      -0.48949421688528
B         4.14349931688441      -0.63041091889095       1.64534770285821
F         4.59065785027374      -1.88725497853572       2.08416993659641
F         2.98948123397189      -0.23832408470439       2.43993877094351
F         3.69492173833154      -0.73437055708671       0.27362753918386
F         5.12732643085661       0.36515437156259       1.73919397587421
