40
C12H25NO2 optimized with ADF in AMS.
N         0.23573195238701       0.02676046229802      -0.24804390806172
C        -0.82821399311635      -0.19132951102235      -1.29410971826101
C        -0.54582338251637       0.72209338290661       0.84025470386159
C         1.38388882048423       0.87083064185169      -0.79110146772280
C        -2.03218782546983      -0.69342094761030      -0.50698377375614
C        -1.91107985239457       0.01848925194231       0.86825104494886
C         0.76903559558040      -1.29888292796453       0.31199228559740
C         2.15179812474756       1.63302668985196       0.27507110541754
C         1.09965637225783      -2.33361095333404      -0.74087025268663
C         3.39627226182067       2.27395044059032      -0.34911386510802
C         4.25178501643248       2.97329964675111       0.70412609014125
H        -0.44963043386713      -0.86457610109049      -2.07194208622284
H        -1.02869922152165       0.79615250447616      -1.73741786830914
H         0.02645528456149       0.66682857422074       1.77422694115894
H        -0.64132665946002       1.77450533128723       0.53734149219010
H         2.09172427231835       0.16034813701135      -1.25673094262902
H         0.94224143726374       1.54850220634500      -1.54044325090338
H        -2.96962470341116      -0.45160617590530      -1.02843494315547
H        -1.99175142652039      -1.78645383498839      -0.38794359387610
H        -1.97610606421983      -0.70339193304292       1.69496023368195
H        -2.71017419053595       0.75841487922648       1.01994026940543
H         1.70645962645652      -1.04665203813719       0.87041661458220
H         0.00102178126823      -1.66697239979592       1.00867092135350
H         1.53014640584566       2.41483238254069       0.74651488591182
H         2.49598390904049       0.91527397654000       1.04211830141213
H         1.60013326913174      -3.16222900442279      -0.21507299027734
H         1.84610657194378      -1.94814276334737      -1.45101218807487
H         0.21872846877717      -2.74541977882463      -1.25805629573209
H         3.97871219839563       1.47113080118415      -0.83093897315873
H         3.09965933652543       2.99279320235449      -1.13619460988438
H         4.54369092063507       2.25963955242383       1.49045495351785
H         3.70483918975468       3.80310049303196       1.18170488174172
H         5.17174694510176       3.38522511280486       0.26185200540398
C         5.64259822353641      -1.58823202533277       0.65137762678470
C         4.20502956898647      -1.10577127228237       0.41364360154684
O         3.85146050358633      -0.91621133361186      -0.79026892153535
O         3.48727686686812      -0.95743440361390       1.45665729896963
H         5.62777653846338      -2.67941844068293       0.80601233159806
H         6.28376001425148      -1.37121499069356      -0.21393782273936
H         6.05750813721113      -1.13614561143534       1.56399196236892
