40
C10H22F6NP optimized with ADF in AMS.
N        -1.39966197332668      -0.66541403393219       0.63800492238966
C        -2.66286111032509      -1.16191006232680      -0.04677900881301
C        -1.91877894344512      -0.04677972059534       1.94151333890091
C        -0.72574203051413       0.39162533777315      -0.23657288169426
C        -3.71740350637964      -0.11549509922812       0.26640073751442
C        -3.37981722933036       0.35781368854944       1.69437165175933
C        -0.46543080538448      -1.80825221917066       0.94773911931224
C         0.63000458523155       0.86426706742299       0.26068993142323
C         0.09173916030099      -2.50804990857902      -0.27570706975270
C         1.19129644708575       1.93200374676521      -0.68616992550888
C         2.52216029074205       2.48914905852529      -0.18901240929543
H        -2.90565170266439      -2.12914904827933       0.42180949406336
H        -2.46164841596569      -1.31012339358437      -1.11519481882442
H        -1.82808803048398      -0.82785036497438       2.70942476205906
H        -1.27897001508302       0.80554027669270       2.19517423571800
H        -0.63867393334820      -0.05926425347890      -1.23642224414772
H        -1.42422654519326       1.23943314873894      -0.28751786017981
H        -3.66252421524498       0.72990451303947      -0.43296958240825
H        -4.72389856179217      -0.55315880060600       0.19434032192767
H        -4.02617912529713      -0.13172849778955       2.43785089174420
H        -3.50453820738085       1.44590072156797       1.78412232669289
H         0.33850737524193      -1.39503263624369       1.57212968467465
H        -1.04638490036018      -2.50961427102689       1.56544999661411
H         0.53266250910542       1.31240944062973       1.26169499866738
H         1.35225974547529       0.03227170134180       0.32522487349657
H         0.71459769428921      -3.34933811572615       0.06431801247108
H         0.72779529838686      -1.84737849171337      -0.88026606592343
H        -0.70144106041145      -2.92143158298018      -0.91452050789216
H         1.32144180379436       1.49614616230910      -1.69356552025049
H         0.46116537144617       2.75192144164412      -0.77091833488664
H         3.28296649697168       1.69863785381420      -0.08337522021373
H         2.39383344463804       2.97836546432543       0.78880418494914
H         2.91227040192289       3.24360495295852      -0.88864436815041
P        -2.26665234115469       4.08780407410178       0.72490798510687
F        -1.70621609914640       5.24973898421525       1.72895314143651
F        -3.45107942206087       3.67491200901593       1.81072867296250
F        -3.27763618005480       5.13067901551002      -0.02309824941044
F        -2.80696697681285       2.84412638161449      -0.28600737716035
F        -1.06905297626995       4.40701173512241      -0.36898613524349
F        -1.24873263120181       2.96257546905700       1.46922329287186
