61
C19H36F3NO2 optimized with DFTB in AMS.
N         0.22715543675803       1.75096855358447      -0.19884632928915
C        -0.51051889266259       2.41160804888922      -1.33318267528626
C         0.69672395615462       2.78893773662787       0.78566190334838
C        -0.64145561782742       0.75803912216325       0.51604693937480
C         1.44140455932484       1.10381967891810      -0.81696156526329
C        -1.62350378340558       3.34382179029631      -0.87764264793192
C        -0.40624805413978       3.72881409310865       1.24927271605324
C        -1.05410135766734       4.41407574334576       0.04948722535195
C        -1.02374319827581      -0.47996142792096      -0.29340380140041
C         2.37138214896544       0.40053893744391       0.16713446806652
C        -2.01556672153820      -1.32563302784140       0.51479288793464
C         3.41826817637834      -0.39685232148413      -0.62114438704117
C        -2.40533942539855      -2.59380427659616      -0.25058581937647
C         4.46948161434485      -0.99861192615444       0.31518653318142
C        -3.39674840423812      -3.44239622304765       0.55188023508597
C         5.53197384193076      -1.76830121409263      -0.47586029914438
C        -3.78634793927131      -4.70876139479856      -0.20835058379233
C         6.59274920456273      -2.36207550113533       0.44931027854929
H         0.23154887624030       2.99125011510324      -1.88683620904621
H        -0.89823127049496       1.62241723489314      -1.97960738455612
H         1.13535803032843       2.26207695365947       1.63472079762433
H         1.47359766013804       3.36521527085330       0.27749743428517
H        -0.10849587200731       0.45251220208939       1.41956446486579
H        -1.54680321402661       1.28570870790559       0.82271913703637
H         1.08099893088729       0.40466377735880      -1.57506019567228
H         1.98656264795757       1.90706555309340      -1.32041878356603
H        -2.04054651415000       3.80786160668358      -1.77520123095917
H        -2.42909127485353       2.79361085521907      -0.38093028098327
H        -1.16038604893938       3.19691634397398       1.83853807481671
H         0.06041491365890       4.47389992818801       1.89870461551057
H        -1.84743958508393       5.08711998970361       0.38207421152097
H        -0.29911385296012       4.99551827996530      -0.48900679261524
H        -1.48502809430220      -0.19654470814015      -1.24271962864321
H        -0.13857861752667      -1.08224539115398      -0.51182951508375
H         1.81979688239340      -0.27843112216939       0.82369310980738
H         2.88160360131210       1.14078575489720       0.78777680086884
H        -2.91242876852633      -0.73347840843134       0.72577424927988
H        -1.56232269224226      -1.60008691050806       1.47326380475353
H         3.91049911578765       0.26402445218822      -1.33962879833841
H         2.92132418174849      -1.19547968745232      -1.18305928676779
H        -2.85384821673477      -2.31543842237438      -1.21027574154851
H        -1.50562048424770      -3.18199650886331      -0.46057775013871
H         4.94898939186592      -0.19526607324468       0.88386729256988
H         3.98344565465314      -1.67170195761141       1.03065933884458
H        -2.94616082071033      -3.71705664451547       1.51155791604978
H        -4.29483512424949      -2.85143698194012       0.76095859166048
H         5.05138651403110      -2.57280705783437      -1.04338778166586
H         6.01046176459309      -1.09285667461320      -1.19239554424845
H        -4.49118160846838      -5.29529096204980       0.38092091771867
H        -2.90590913604263      -5.32091353664924      -0.40794055059068
H        -4.25540090608124      -4.45451443520324      -1.15972931103185
H         7.09773791260834      -1.57248828447550       1.00719201824938
H         6.13740112760950      -3.05282347595459       1.16068895211429
H         7.33642463647045      -2.90484967712611      -0.13450762692384
C         3.02368465336020       4.65455791666172      -1.65478385975414
O         1.89695977285122       4.13905711717491      -1.58009005397331
O         3.44440438324673       5.69028093404707      -2.10822012770259
C         4.13973927767019       3.67191564329602      -0.95935192391319
F         4.24226358214914       2.49681687129912      -1.63654046691133
F         3.73722044449358       3.31331532602992       0.29667566400345
F         5.37351683709816       4.15951798062033      -0.83943722026698
