29
C9H17ClN2 optimized with ADF in AMS.
N         1.11954496965144       0.84364738333570       0.27631867534960
N        -0.85391009197764       0.55090159223719      -0.55676930390968
C         2.43619652783910       0.51775170847153       0.84311616927112
C        -2.11782581456062      -0.09730492111792      -0.92045377972028
C         0.22221483749641      -0.09494843367853      -0.07208239880782
C         3.48565989185026       0.27936316161597      -0.24021770264670
C        -3.03583450954844      -0.26916473929042       0.28851512414789
C         0.61559272032780       2.09815732418185      -0.00135993595778
C        -0.63484517143088       1.91583034569439      -0.51748717835200
C         3.16710755507083      -0.92514905291935      -1.12349550583266
C        -2.46552595439097      -1.20706623038213       1.34742456294430
H         2.27823599388557      -0.40425559208253       1.43674275841700
H         2.71500549055440       1.34914909629561       1.50785795798102
H        -1.86242813663042      -1.07274326659618      -1.36082463311957
H        -2.58432550911679       0.52169848023049      -1.70230484774504
H         0.37052391453368      -1.18813929309961       0.22362989606530
H         3.61212545003554       1.19333677305059      -0.84898979951464
H         4.44174384378732       0.11289766855337       0.28673496692735
H        -3.24599772731676       0.72607483695596       0.72005454061946
H        -3.99756032818487      -0.65564351987870      -0.09299847663032
H         1.18024196136588       3.00319799543109       0.18494468328286
H        -1.37552793013996       2.62650977807429      -0.86245343456846
H         2.27570507290217      -0.74252671998130      -1.74526551905130
H         2.96103257996600      -1.81475623938427      -0.50573464813250
H         4.00495368328801      -1.13965815966699      -1.80436903516378
H        -1.52858832932982      -0.82973465005965       1.78378034344646
H        -2.22662257397733      -2.19655855203364       0.92726794368198
H        -3.18245184888915      -1.34664048226893       2.17023344196065
Cl        0.99203646903922      -2.58741663188787       1.42147360695754
