41
C11H22F3NO3S optimized with ADF in AMS.
N         0.15773533263429      -0.57665246634063       0.13487227267195
C        -0.91010711925864       0.24277462186484      -0.54809605710644
C        -0.30827912824559      -0.58290170516789       1.58176316877538
C        -2.22611394423793      -0.18642573882510       0.10257838226239
C        -1.82444492691636      -0.75370111759783       1.49147709700252
C         1.54179895697518       0.02337540242532      -0.06859215895945
C         0.15617637443455      -2.01501337910031      -0.36718177898120
C         1.85704885018287       1.25278349055971       0.76426458653063
C         0.59398924616216      -2.20577062584397      -1.80938697027734
C         3.17224514836144       1.85710782371123       0.27093359166664
C         0.80898898532229      -3.69977056178634      -2.06056404748106
H        -0.67800540549571       1.29450723787893      -0.33002479099841
H        -0.85384282973041       0.08423566527575      -1.63198227653511
H         0.22873801348500      -1.37046372990154       2.13104555716520
H        -0.04564971166807       0.39665675234075       1.99655768787761
H        -2.90605589365506       0.67377894487359       0.18165902822746
H        -2.73733554051150      -0.94829774904980      -0.50280784811290
H        -2.10773830455602      -1.81157855303761       1.58275630233953
H        -2.31312991842655      -0.21634927337128       2.31582622947135
H         2.26344336846717      -0.77716292953933       0.15879702143308
H         1.59829576233633       0.26168793777411      -1.14110567479494
H         0.82975467681985      -2.55829486675263       0.31153725272291
H        -0.86281408522213      -2.39908632987349      -0.21670640535604
H         1.05568474546136       2.00986085627810       0.69696772809928
H         1.98035262313013       0.95165717346890       1.81550120386693
H         1.54710681886773      -1.68861833306100      -1.99377960510330
H        -0.15200468866751      -1.80187144959964      -2.51609230356499
H         3.98621308689456       1.12266010935368       0.36570612653924
H         3.10314317496702       2.17011469810891      -0.78314466537432
H         3.43744493675704       2.73728562042095       0.87308866504117
H         1.61566754393701      -4.07078051251474      -1.41022122741238
H        -0.10103341120700      -4.28306278342274      -1.84836663140812
H         1.09344344268183      -3.87808767814377      -3.10681211951100
S         2.75010017404315      -2.53828937511957       2.23069664453888
O         3.23437708013469      -2.72655164650709       0.84460616186601
O         1.45465977514506      -3.19775336774736       2.51012046925199
O         2.85588661640872      -1.15560477725134       2.73675431798306
C         3.98187164442980      -3.48927538689367       3.28466794163359
F         5.23551638675270      -2.98807471030822       3.12952806801658
F         4.00977038623599      -4.80462605148976       2.94447831529904
F         3.65596103957058      -3.40298784988810       4.60101800909460
