37
C11H24ClN optimized with DFTB in AMS.
N        -0.93489282595195      -0.07901021015960      -0.08517362585017
C        -1.37064584609332      -0.99326681965224      -1.18810057379994
C        -2.09144868629335      -0.11969340098931       0.87208131685456
C         0.29065819625327      -0.61976819959282       0.60193403017772
C        -2.11727857692102      -2.13437528745915      -0.49882901204817
C        -2.56519659631362      -1.56715803986222       0.85839734134783
C        -0.72829332515584       1.30494315100843      -0.62337910981278
C         1.57581139106885      -0.53285476347988      -0.21391388181095
C        -0.31798971503394       2.33348153247905       0.42940767690953
C         2.70061130000513      -1.22921032943487       0.56395404410405
C        -0.21786898977438       3.71182296195311      -0.21935353353482
C         4.02978755278704      -1.12873474334060      -0.18035562738661
H        -2.04010393616040      -0.42955509140868      -1.84220394417191
H        -0.50505739143842      -1.32230846660348      -1.76222839568397
H        -1.75073852603316       0.21985479263091       1.85826937919578
H        -2.86158203747785       0.55164210801560       0.48590316353726
H         0.07651395137732      -1.66221523574904       0.84582585736696
H         0.39574791598914      -0.06224261432930       1.54151277272307
H        -2.96882790421044      -2.44363860799318      -1.10754622412990
H        -1.46550068084477      -2.99995648720525      -0.36443026346705
H        -2.11510032473463      -2.12837301351169       1.67935634410581
H        -3.64942936727619      -1.61037890671485       0.97312739871784
H         0.02502280840443       1.23595341261228      -1.41264009650379
H        -1.67526128676275       1.60419017153438      -1.08274270169500
H         1.46062891266846      -1.01102584861921      -1.19246592108895
H         1.85595079400780       0.51076916762086      -0.37903411601984
H        -1.05086405460505       2.35893421818598       1.23734470554725
H         0.64488615387560       2.06867272342760       0.86888072842208
H         2.79644274287440      -0.76419273235815       1.54955096115534
H         2.44186635179759      -2.28274480735636       0.71228631824989
H         0.52970408486257       3.71288819235064      -1.01427697944774
H        -1.17793144797126       4.01111301363485      -0.64266955335269
H         0.07330982717127       4.44369770956643       0.53281368857145
H         4.81109817907401      -1.63270408398636       0.38816552995678
H         3.95664741357819      -1.59745172284416      -1.16298642950652
H         4.31537334131628      -0.08453561125013      -0.31346235870759
Cl       -0.33667897915898       0.90336377838040       3.35161231157518
