42
C10H22F2N2O4S2 optimized with DFTB in AMS.
N         0.80295482582085      -0.40559599404932      -0.13023052435703
C        -0.00262660363396      -0.54040393490488      -1.39378867523948
C         0.83905632686738      -1.74489438371316       0.55624348671343
C         2.20127601474495      -0.02821895810391      -0.55414042848540
C        -1.41086890992228      -1.06752334909335      -1.15161442552898
C        -0.54590135757886      -2.31179647188811       0.84054767744736
C         0.22367738725096       0.61560497886957       0.80505162867048
C        -1.37184351575237      -2.41833732329457      -0.43934309483023
C         3.20063855771999       0.18163314536251       0.58126263736020
C         0.21618817745276       2.04246861712089       0.27641853514689
C         4.57291259236872       0.48633847165816      -0.02111571715807
H         0.54405957652821      -1.23031880219121      -2.04036114663818
H        -0.03155507529407       0.43757876094236      -1.87707485273935
H         1.39802951021707      -1.62832126062129       1.48575063732710
H         1.38084103616703      -2.42439767633850      -0.10247278061142
H         2.11868471549033       0.87665174412238      -1.16040190534214
H         2.55820335879233      -0.83989890761008      -1.19571833075255
H        -1.88407586898388      -1.18043836210619      -2.13040044507985
H        -2.00344218014213      -0.34793355273326      -0.57848316202075
H        -1.07206196131669      -1.70824435488470       1.58635812939024
H        -0.39789113162186      -3.30805974939380       1.26521363742634
H        -0.79907144787770       0.31034945221748       1.03018488885281
H         0.80388975433456       0.56417628133335       1.72906766100820
H        -2.38801458154451      -2.73840607191074      -0.19792541703321
H        -0.92397809190187      -3.16487981121814      -1.10018068471207
H         2.89359590167639       1.00896488599879       1.22748212666773
H         3.28117149674129      -0.72183450384490       1.18994196320874
H        -0.26881938603385       2.66701542900809       1.02664428815662
H         1.22293434069659       2.42345448855417       0.11781068645525
H        -0.34626780540543       2.12767882923856      -0.65145462228592
H         5.28377269663453       0.68882440542158       0.77880550990908
H         4.92886803650772      -0.36935060406070      -0.59359416491881
H         4.52292694804298       1.35558653321674      -0.67775106437651
N         3.44329746790932      -2.58495697176534      -1.84188717122777
S         3.86231650915735      -3.51642250927549      -0.61555587772718
S         2.41485859679557      -3.15240673635215      -2.90399794667681
F         4.81075789910590      -4.63806091013883      -1.25489372541497
F         1.05713915830997      -3.46652265265463      -2.00808766555864
O         4.71593660203805      -2.72911765688994       0.21771942890638
O         2.79489613945096      -4.24053400550341       0.00417769219080
O         2.71670403149099      -4.39730740059635      -3.51847039354707
O         1.99765471139670      -2.04321031612771      -3.70568441117525
