42
C10H18F6N2O4S2 optimized with DFTB in AMS.
N         1.13451763798678      -0.68273012860951      -0.48569257481447
C         2.59271892330601      -0.61895414911530      -0.14083376363679
C         0.51473203874954       0.26942213563644       0.49103578772577
C         2.86399513203307       0.84909429369659       0.16321815932055
C         1.51171264172618       1.42137972564156       0.61980054601276
C         0.59823751618751      -2.06789964716990      -0.27950380398274
C         0.93129982888358      -0.18562131619562      -1.89347254942053
C         1.23435773500311      -3.11055639301709      -1.18545629334295
C        -0.47216704131164      -0.37007216551363      -2.44309609695250
H         3.18776487196574      -1.00727699625458      -0.96531248065018
H         2.74923142693064      -1.23855581080826       0.74485827989184
H         0.39815574386721      -0.25651550690567       1.44139002844064
H        -0.46573132009743       0.57914708111862       0.13047131943460
H         3.22555001657847       1.36667791064142      -0.72680620754886
H         3.62349544894610       0.93811010787234       0.94069510940339
H         1.54929370033687       1.76673019640480       1.65443720981541
H         1.21486107434465       2.26470051793489      -0.00658787732335
H         0.78454389103595      -2.31905398467341       0.76863414575139
H        -0.48202492978812      -2.02423966463437      -0.43555475010215
H         1.19864372039757       0.87191746071626      -1.89278366972880
H         1.64846314206503      -0.71757323929256      -2.51992265293481
H         0.84746983426063      -4.08635185927603      -0.89312817336431
H         0.98711721646681      -2.94099013400612      -2.23050354364977
H         2.31750420808675      -3.12053609215594      -1.08263051201923
H        -0.51020192819420       0.15015193426335      -3.39990698385404
H        -0.69391453780740      -1.41893694462662      -2.62916894865288
H        -1.23475147137586       0.05137787168842      -1.78864524216450
N         3.33264360499892      -1.74000627181649      -3.22011880818626
S         2.58644872939878      -1.83193345401270      -4.64862747405642
S         4.79397660494661      -1.07071336993774      -3.20397511868389
C         3.34013403014088      -3.26335279865824      -5.59586780709837
C         4.55315046968360       0.77247397231438      -3.50291901408607
O         1.24001981611029      -2.27475430643226      -4.34162703145389
O         2.73639550029216      -0.66684036236427      -5.48370113357196
O         5.70156369779868      -1.52753826292928      -4.21983025315730
O         5.21402629533767      -1.10959544622409      -1.82078338819795
F         2.38978958477053      -3.84769389253316      -6.30747441931618
F         3.83438747480581      -4.14516593233921      -4.74087443213821
F         4.29130091928629      -2.84890446106517      -6.40300553559615
F         5.36322946683736       1.44929215204147      -2.69952146700109
F         3.29627324512463       1.10068773416866      -3.16475393993368
F         4.77474620058422       1.13525091962799      -4.74326346467610
