32
C8H16F3NO3S optimized with ForceField in AMS.
N         0.15814257495168       0.30060117307500      -0.06865034348294
C        -0.43733745384170      -1.00309422591482      -0.47134914764975
C        -0.95059082367714       1.06357221388272       0.58084523370866
C        -1.94405752626757      -0.84902729717971      -0.43812364126937
C        -2.16595023258367       0.15435224542733       0.66088574590038
C         1.27710674669157       0.11926003150819       0.90682950626376
C         0.62728888616096       1.04239910401330      -1.26641579505430
C         2.45418396051197      -0.72821093841412       0.39011895124888
H        -0.17954502719929      -1.81131094245870       0.25101344966252
H        -0.10533602382082      -1.34164732065127      -1.47957329574982
H        -1.24175264760950       1.96977948649307      -0.00103479609038
H        -0.69425696757356       1.42822552517090       1.60209822169101
H        -2.45595785930095      -1.81258420581893      -0.22432847918041
H        -2.30429924409286      -0.43666030515260      -1.40676224067560
H        -3.11694470811846       0.71262946100771       0.52076188605509
H        -2.17971351235881      -0.36647307989258       1.64464064140304
H         1.68141391704473       1.11172551175259       1.21092114567612
H         0.89504909334737      -0.36601752677793       1.83407965961773
H         1.39874310787930       0.47192886887890      -1.82302408311866
H        -0.21243913878866       1.22212608247320      -1.97383664256063
H         1.05662704189282       2.02835023091260      -0.98015716144922
H         3.16635260045875      -0.90092333110405       1.22451232378546
H         2.11988221348494      -1.71922321512667       0.02220777945800
H         3.00873029511926      -0.20144178701418      -0.41211229995799
S        -0.15541350309727       0.44392341144073      -5.21007170919882
O         1.18321969445507       0.36900005319905      -4.46197949308733
O        -1.02235337362045      -0.59416130961233      -4.48176627609408
O         0.15947008858452      -0.24180966857679      -6.54772654065762
C        -0.87790808762834       2.10490037168998      -5.34614892071076
F         0.02919481095114       2.95599967355535      -5.94687425702218
F        -1.18898845014303       2.58217298123199      -4.08791200898180
F        -2.02723373461201       2.04769887268203      -6.11020572417897
