61
C19H39NO2 optimized with DFTB in AMS.
N         1.04429741924834       0.82517736573184       0.26349769259227
C         0.55466742357100       1.99895944098945      -0.53724398228433
C         1.90964060496120       1.31792152235879       1.39334162834406
C        -0.07139591817894       0.00191066378716       0.83164296404908
C         1.90470804213802       0.02689266628010      -0.68491321324452
C        -0.14783096460006       3.05614170323896       0.30004651870435
C         1.25789092770761       2.40659141776699       2.23431589739624
C         0.82017055780668       3.57688673601985       1.35929284272831
C        -1.01851761442997      -0.62037479830955      -0.19228833939216
C         2.67550002744363      -1.12681358662228      -0.05457593958249
C        -2.12065965878451      -1.39201374591028       0.54361343304416
C         3.58976896222058      -1.73651642843713      -1.12452720011527
C        -3.08228781646114      -2.05459023287771      -0.44735180023215
C         4.63816768302152      -2.67944853750665      -0.52367036307721
C        -4.17743336474074      -2.83828844054799       0.28292818827442
C         5.69267094459037      -1.93550681421269       0.32103439608333
C        -5.13724313091687      -3.50227713871733      -0.70269667791667
C         5.55052758698257      -2.21021045961503       1.81789827269809
H         1.45254771649934       2.44541845049811      -0.98075419010437
H        -0.09130296503116       1.61963370041056      -1.33067989488462
H         2.15225841271701       0.45948994484465       2.02136260691487
H         2.82310581646150       1.69817632562186       0.92890510175591
H         0.39212191516675      -0.78847992523498       1.42753039347359
H        -0.64010211226304       0.64573476700178       1.50601619027512
H         1.26362680090544      -0.32574646560958      -1.49556723844342
H         2.63131464017275       0.73678338081654      -1.08541699783663
H        -0.43736312953374       3.86517437710553      -0.37569873424596
H        -1.05848607267414       2.66424589789684       0.76488490826255
H         0.40384674560751       2.01410277876103       2.79723741353307
H         2.00668827701709       2.73960417763790       2.95784592075013
H         0.34076730998462       4.34634981891566       1.96894707418525
H         1.69751718015758       4.00703045077967       0.86567112263991
H        -1.47741419810927       0.15245202423926      -0.81402913626044
H        -0.47891016335178      -1.30892239212397      -0.84706269865310
H         2.00312861874685      -1.88652569787243       0.35556406852070
H         3.30388782027834      -0.73621091838316       0.74616050740854
H        -2.67642757020997      -0.70536408587237       1.19113827576742
H        -1.66529437951517      -2.15791670256120       1.18051626114451
H         4.10514852148204      -0.92255010453772      -1.64395466365165
H         2.98486225176862      -2.27960473720941      -1.85897357039110
H        -3.54090063408613      -1.28545892785557      -1.07816350082774
H        -2.52136432398084      -2.73140907524001      -1.10079215324929
H         4.13876966320795      -3.44644857201221       0.07951677713714
H         5.13588944388103      -3.19321247743406      -1.35219047384369
H        -3.71604542788362      -3.60455787530298       0.91499988913348
H        -4.73681131288135      -2.15915310272437       0.93525618739664
H         6.69202962213610      -2.25074619351628       0.00415130753086
H         5.61769194425853      -0.85775576878700       0.14345849577679
H        -5.90440021208734      -4.05580626072775      -0.16111518107652
H        -4.60012061571275      -4.19608873542354      -1.35080021952795
H        -5.62478148494417      -2.75163746253034      -1.32622411615095
H         4.56466610890154      -1.91482853816195       2.17993718158781
H         5.69183409261131      -3.27163805654169       2.03076077361917
H         6.30199642561997      -1.64444933981862       2.37010932089930
C         5.73119305845093       3.12728656831505      -1.08202433229490
C         4.45486299991593       2.38406405018228      -0.63202580162890
O         3.38306695063352       3.03258428371310      -0.66574978853104
O         4.58697641814040       1.19869350351023      -0.25737925010127
H         5.48712077861034       3.85401005638852      -1.85453689690849
H         6.14063159796964       3.65347976397396      -0.21993408986004
H         6.47008156338315       2.41701173535223      -1.44789764860997
