46
C14H29NO2 optimized with DFTB in AMS.
N        -0.72587629880820       0.72009444617948      -0.04254504597473
C        -1.27452746962152       0.36432528375196      -1.39444971074930
C        -1.80563668586016       0.54152794323516       0.98020639759152
C         0.46080883387647      -0.12982259127310       0.32690626619167
C        -0.35408105540068       2.17927396454446      -0.12117224517912
C        -1.83320992276450      -1.04765753902459      -1.45434429207660
C        -2.40939270853019      -0.86018777619546       0.97551124513721
C        -2.93492677861587      -1.23309458051727      -0.41088125477882
C         1.67686919770003       0.03159251718390      -0.58018838594958
C         0.27994204227243       2.76889425409367       1.13461512689310
C         2.80944767994857      -0.87174557687667      -0.08446028875134
C         0.72079532882913       4.19874886977861       0.81596472546584
C         4.04602011959439      -0.70334348163524      -0.96576914233094
H        -0.46977467493651       0.52416696679767      -2.12367957710117
H        -2.07084415655995       1.08349633570658      -1.60491335345959
H        -2.58122282277129       1.27918955734147       0.75545161443821
H        -1.38011122966100       0.76538017511890       1.96055401491134
H         0.13154739059497      -1.17089052849695       0.31661095121812
H         0.72084320263164       0.12537719197103       1.35779184840979
H        -1.27174728315432       2.72177841822114      -0.36302221252191
H         0.34749401158215       2.28322348361848      -0.95761451002600
H        -1.04390005705994      -1.78961208286988      -1.30901233588402
H        -2.24440968542079      -1.19543671992102      -2.45603764985331
H        -3.23014503293137      -0.86542830471597       1.69808274715743
H        -1.67246832896754      -1.59579061801758       1.30857706738008
H        -3.78736107052123      -0.59321655548874      -0.66155502775318
H        -3.27818913695967      -2.27040681513326      -0.40589282974936
H         2.01797384041220       1.06919530432943      -0.58479398952337
H         1.42232283379419      -0.23156616293351      -1.60863682624385
H        -0.42592802160687       2.77144206628531       1.97198956125213
H         1.15955341031301       2.19234415598225       1.43002899227123
H         2.48542158356211      -1.91899581217439      -0.09941095928136
H         3.05976374509762      -0.61396304251736       0.95108024535302
H         1.21103347746365       4.63717198371527       1.68483354880194
H         1.42047888093768       4.18655538337690      -0.02031842825806
H        -0.13844456719389       4.81448896535133       0.54794658654817
H         4.38127528840315       0.33384430005495      -0.95186246286868
H         3.81825378402177      -0.97931921675849      -1.99572571266314
H         4.85406298791064      -1.33907775971088      -0.60319062986667
C         2.43646623033686       2.97750317229074      -4.15999959274375
C         1.70699835949450       2.40953916355781      -2.92147608001487
O         0.86016527930199       1.51303273610117      -3.13364480360311
O         2.02993620228635       2.87988763253273      -1.80962294104777
H         2.82518095070497       3.97119538872077      -3.94654666620446
H         3.26684063950510       2.31329498710506      -4.39969836757684
H         1.75726046146988       3.00949635151417      -5.00996826698587
