34
C10H21NO2 optimized with ADF in AMS.
N         0.37413673062315       0.11906088557310       0.00677197622442
C         1.19999613350902      -0.81868237700769      -0.88968819496049
C         1.39322835817445       0.73551617078455       0.96331136998673
C         2.58629982218969      -0.93211962400242      -0.24359876769494
C         2.42474130900618      -0.35671486792011       1.16905643303085
C        -0.63129542458118      -0.67683751978806       0.81008760748120
C        -0.27561804992552       1.19357522648028      -0.84747316185832
C        -1.77895068788476      -1.25949376718995       0.00761574712550
C        -0.94381686776956       2.28400358495263      -0.03961370104526
H         1.27554579463790      -0.33786280489595      -1.87296834484824
H         0.66383166546330      -1.77416437725070      -0.95254175122214
H         0.86837028089019       1.05332516015567       1.87408362793455
H         1.81978295095180       1.62414255161624       0.43334622515539
H         3.26927592408894      -0.29172183624839      -0.82254863270805
H         2.95717406337430      -1.96775963700328      -0.24452110947830
H         2.08501837340515      -1.12392521000894       1.88740906502319
H         3.36442590014174       0.06867570236105       1.55257116204406
H        -0.05357473645931      -1.47043315702630       1.30707368715443
H        -1.01317669404852      -0.00243461038883       1.58998330343636
H         0.57285433723722       1.59480791347777      -1.43811864289499
H        -0.97504565873829       0.67220031615848      -1.51788386822384
H        -2.35310293533159      -1.93075553049076       0.66469784779800
H        -2.46288426996795      -0.47942534747022      -0.35490336004173
H        -1.43457087786618      -1.85132381336800      -0.85298418030557
H        -1.45764499043537       2.95521996340836      -0.74458988716819
H        -1.69793468709802       1.91313214071872       0.67358175265337
H        -0.18531596436031       2.88618107740683       0.48190554977069
C         3.81062955486194       3.60124235442513      -2.29817742504119
C         2.77411110891298       2.72087371810027      -1.58867689791873
O         2.31749828383872       3.16352321235098      -0.48984956391105
O         2.45225656210643       1.62315818535092      -2.14871783909824
H         3.38103863455597       4.59801413377499      -2.48126433101270
H         4.67968670634590       3.74742753746898      -1.63826179656936
H         4.13712137215158       3.15783448669467      -3.24805948161742
