38
C10H22BF4N optimized with DFTB in AMS.
N        -0.56761883210704      -0.25927814096709      -0.04750146847164
C        -1.07588411850046       0.65131789386495      -1.12401522648640
C        -1.39067622335098      -1.52016089081552      -0.07398157595796
C         0.85507832990856      -0.61190768764119      -0.40292947253729
C        -2.55414225246547       0.98717737213871      -0.95787541031896
C        -2.88213282060063      -1.26497141066790       0.08460263051979
C        -0.64018262443903       0.38029724210100       1.31252562826083
C        -3.39929459164903      -0.28619014721263      -0.96677263529679
C         1.58795937311077      -1.48776399280575       0.61332547002589
C         0.09983069113923       1.70171705201003       1.43556821740143
C         2.96084972971726      -1.85824109607020       0.05509059286584
H        -0.91883837793359       0.13520329298664      -2.07579068507174
H        -0.46749523761513       1.55765692659995      -1.11826216527801
H        -1.03982440164495      -2.16669718287440       0.73133185064973
H        -1.19101036451785      -2.00098105465136      -1.03628025442186
H         1.39366954132275       0.32917549240900      -0.54445991538479
H         0.81193012951355      -1.12325252798838      -1.36933805843937
H        -2.84043484159867       1.63356197452082      -1.79204604441035
H        -2.71869715285417       1.54594639327952      -0.03336078726956
H        -3.09684175680355      -0.90320409653910       1.09224668393023
H        -3.38509537512679      -2.22873360634699      -0.02752044775529
H        -1.69279188690157       0.52141316424101       1.55429867932913
H        -0.23447318339571      -0.34034603167251       2.02277603652444
H        -4.44259683570056      -0.03567357840470      -0.76162239339752
H        -3.34858375758735      -0.74706939341723      -1.95929069643756
H         1.71648505163212      -0.95714103532553       1.55827344350828
H         1.02401539028413      -2.39899661841831       0.81977081542748
H         0.03535037123778       2.00672592264800       2.48001829302118
H         1.15341474409860       1.60711911716138       1.17790151647026
H        -0.34671421432291       2.48667419597330       0.82562285450621
H         3.48762425321682      -2.47824136366211       0.77910961185440
H         2.86229873059337      -2.41832181055907      -0.87599032983675
H         3.55614994040693      -0.96400849908427      -0.13650622979018
B        -0.74228046060740      -2.46852498308857       3.21474009038349
F        -1.84312463588946      -1.65701094339704       2.80753179708231
F         0.37587985088783      -1.60807750344264       3.34492930178531
F        -0.46897406692377      -3.35264876664316       2.14280071315556
F        -1.01313572803368      -3.13368555533867       4.37182966126021
