37
C11H20F3NO2 optimized with ForceField in AMS.
N         0.26670897306515      -0.11981453662857      -0.19043838435812
C        -0.59918160705199       0.68466903768019      -1.11207714289656
C        -0.49003705987299      -1.34093546918064       0.23944080269692
C        -1.96382409391952       1.06571437027914      -0.51466873622819
C        -1.87447580557882      -1.04248904352651       0.84988987081097
C         0.67927666678184       0.67070614215285       1.02133737981415
C         1.45995252395808      -0.55601520370636      -0.99388137516904
C        -2.72550762929656      -0.18321530114686      -0.08157735625532
C         1.52774342841532       1.92450989671776       0.74124911426126
C         2.53862189834642      -1.33994572011378      -0.22192970453937
H        -0.80390555142534       0.10783150414802      -2.04451453256294
H        -0.08576648362005       1.60922395680498      -1.44964241722803
H         0.08097284125542      -1.91473980304445       1.00108873187482
H        -0.64905865716542      -2.02529187727434      -0.62604634757250
H        -2.55866892312818       1.59774898352099      -1.28845880100721
H        -1.84837034200166       1.76695867061012       0.33713747120195
H        -1.77326975383785      -0.54951470874657       1.83897750609984
H        -2.40127714348626      -2.00537707508285       1.02676530366899
H        -0.20102061813402       1.00998456684132       1.60050883327819
H         1.24254922494281       0.02791327701665       1.73165288089589
H         1.13601784379705      -1.20153969821630      -1.84254933322880
H         1.95307184540713       0.31699451756312      -1.47503219955909
H        -3.66005710287492       0.11537560868817       0.44064851846841
H        -3.00887183436120      -0.77635444301056      -0.97899411811925
H         1.80677809421906       2.38938000604797       1.71018403048677
H         2.47060032235971       1.68176097510538       0.21392860542196
H         0.95879639756975       2.68459633478163       0.17034499200619
H         3.34107846334012      -1.63350882647962      -0.93081550799746
H         3.01393146277993      -0.72237209109272       0.56593163092612
H         2.13452868482562      -2.27267416933390       0.21857358560491
C         6.28682214565866       0.10577068162309       1.72988360114682
O         5.53188100907992      -0.70462386114687       2.24430262236201
O         7.40984124658069      -0.24097082660945       1.40107967349766
C         5.84451571094903       1.52071023809887       1.50157783830092
F         6.68060457295986       2.38298677984551       2.18617473944105
F         4.54869527658345       1.70338838494739       1.94952175817732
F         5.89992346837977       1.81073237336719       0.15078936007877
