62
C18H36F3NO3S optimized with DFTB in AMS.
N        -1.31708575286667       0.91810415181466      -0.67054982681076
C        -1.85770477582322       1.48538340927272      -1.94748475689251
C        -1.59116879580429       1.88487609690453       0.44999967109219
C        -1.94182887941736      -0.40804596219835      -0.34320537260238
C         0.17997734313426       0.79699272261392      -0.84140416216731
C        -3.34318173831640       1.81788633581955      -1.86567736065302
C        -3.06294966577642       2.25289543435503       0.58124244458650
C        -3.61712734831091       2.80344323894248      -0.73080423193773
C        -1.76755190275146      -1.49277550537727      -1.40759143179671
C         0.90709574017183       0.07274325415191       0.28824444359997
C        -1.88456289353422      -2.88114965783881      -0.76049368323658
C         2.42038859961889       0.15574549693687       0.06349059983470
C        -3.24353107256808      -3.11369966362908      -0.09494631008751
C         3.15866205649474      -0.57781792789245       1.18770442648042
C        -3.33125472593982      -4.52645415876075       0.49113464039053
C         4.67638916740818      -0.50588533291901       0.99771496636371
C        -4.64625407573693      -4.73250234051773       1.24055437238400
C         5.40882201042673      -1.25068650819061       2.11262054078384
H        -1.28512110517090       2.39297131261682      -2.15989732932514
H        -1.66874763914599       0.75942412920811      -2.74077096045118
H        -1.23940867046187       1.42300582377949       1.37534808782843
H        -1.00097397137894       2.78262599841298       0.24544970538226
H        -1.50197754775798      -0.73346193857306       0.59931852181859
H        -3.00292671643018      -0.23301922081099      -0.17121578322076
H         0.35565177288013       0.28337199604587      -1.79011559852685
H         0.55974201057949       1.81842687114182      -0.93808011695528
H        -3.63353952569461       2.25940138477638      -2.82282958222869
H        -3.93212464902898       0.90779308714167      -1.72736137200739
H        -3.64671283183010       1.39012371894016       0.90951778301068
H        -3.13466094975397       3.01321355598374       1.36304952999172
H        -4.69317877015343       2.96780945978919      -0.63929911183245
H        -3.14345780523690       3.76409894342798      -0.95913991205613
H        -2.52608522384044      -1.37963043435188      -2.18908224913651
H        -0.78563129788594      -1.42311107201468      -1.88111720223616
H         0.61232854136839      -0.97780515545087       0.32371988932153
H         0.66628753131756       0.51907351610946       1.25368792630179
H        -1.09391578490607      -2.98952201396944      -0.01264907395517
H        -1.72188048079555      -3.63588181720670      -1.53681416520945
H         2.73327785954822       1.20579396180571       0.03908428145561
H         2.67630771979830      -0.29278248266970      -0.90330920873358
H        -3.38477982761792      -2.38963736620678       0.71199761041161
H        -4.04527400713636      -2.96353534377688      -0.82743030324585
H         2.88732885651221      -0.13074901383497       2.14911272365126
H         2.83992181277721      -1.62486903393578       1.20594716260704
H        -3.24736360857258      -5.26433396397269      -0.31449076031820
H        -2.49384871347863      -4.68129014430234       1.17873188267702
H         4.94492395480250      -0.94295313788575       0.02938442673851
H         4.99404852107860       0.54271148644920       0.99011602089591
H        -4.69293957803197      -5.74512662672690       1.64169244882630
H        -5.49637785056716      -4.58260609216914       0.57280053988665
H        -4.72479413821738      -4.02658111726197       2.06806057714357
H         5.16531773802828      -0.81818219356751       3.08377732454642
H         5.12234179656996      -2.30308863834521       2.12044321435114
H         6.48675156534485      -1.18447472531740       1.96239356496360
S        -0.99219923599108      -1.04164194697059       3.27882696726127
O        -0.50772431278791      -1.55247742031211       4.52941439930656
O        -0.75500020292590      -1.88777200593259       2.11518843351117
O        -0.72766050028645       0.37137190074596       3.02669593106136
C        -2.84639103143560      -1.06381114475114       3.41708027945458
F        -3.33358648141534      -2.29372189641832       3.52276420833295
F        -3.36919214880963      -0.52533334168131       2.29151823389001
F        -3.28775162386885      -0.34357883414545       4.43735803407990
