42
C12H23BF4N2 optimized with ForceField in AMS.
N         0.22745906955479       2.30490366984224      -0.23320934367916
N        -1.85117767492294       1.51145164565717      -0.22926057302872
C         1.62180874993675       2.50208960710978      -0.62873625765081
C         2.54500952690236       1.49310674977416       0.07267067276847
C        -3.03548511638824       0.75063695737023      -0.62531153436177
C         2.12083389046622       0.04509497705937      -0.21140644247602
C        -3.07200585716138      -0.61708458448065       0.07276599622831
C        -0.73164281415831       1.69337674101817      -0.95637224490349
C        -0.30651358221104       2.52550964353007       0.98510827440178
C        -1.59664805533573       2.03597617417984       0.98630930910366
C         3.10006927609708      -0.96850627979201       0.38518809095725
C        -1.88418399625639      -1.49937469387789      -0.33797423943151
C         2.60317472952140      -2.39547969794112       0.16016108209179
C        -1.95253375831989      -2.87469592661741       0.31681647335642
H         1.93449881804860       3.53702293831495      -0.37131777534174
H         1.72445705175021       2.38527302781026      -1.73026017034331
H         3.58324055496488       1.65381374246587      -0.29074993963427
H         2.52834781337982       1.67817256789591       1.16927014685006
H        -3.94671476711714       1.32823800115360      -0.35832463827260
H        -3.04455053277729       0.60244172320340      -1.72779723082705
H         2.04861704554536      -0.11430095597990      -1.31020176562692
H         1.12494673289796      -0.12735955031162       0.24304122814302
H        -4.01931163395316      -1.12852763811923      -0.20397523364552
H        -3.06794995361499      -0.47082230943556       1.17531803476931
H        -0.59049117540130       1.31724645830764      -1.96251287530094
H         0.21837756985326       2.96079129851057       1.82512617785324
H        -2.27994519302066       2.02171367529654       1.82422874413850
H         3.20315936158208      -0.79265056143979       1.47824638227825
H         4.09790643755442      -0.85111251595892      -0.09062957279931
H        -1.86932808843496      -1.62353448208749      -1.44259956514076
H        -0.93779481549640      -1.01757711277603      -0.02570136131431
H         2.51379347785591      -2.60576744355645      -0.92737442540040
H         1.61126802367100      -2.53982415356105       0.64086982265769
H         3.31969801177884      -3.11681391213209       0.60548385081037
H        -1.95618677897166      -2.77573134109278       1.42329030553602
H        -1.06271423650744      -3.46998890142158       0.01967608793179
H        -2.86733141740189      -3.41256944963277      -0.01077992181208
B        -1.41694725035017       3.10549048696404       5.00206902151874
F        -0.19693224004031       2.67469427748459       5.58797846800698
F        -1.14194039601635       4.03653160999519       3.96533077621453
F        -2.22498986883454       3.72586471126829       5.99168710836056
F        -2.10466838596880       1.98494305840245       4.46545370941396
