62
C18H36F3NO3S optimized with DFTB in AMS.
N        -0.07263371172554       1.62944293086691      -0.28537428168237
C        -0.94138034443150       2.30949868043192      -1.30064013870083
C         0.48569787463936       2.68150878524618       0.63609514727349
C        -0.81786101361913       0.60821385675047       0.51919727724199
C         1.07667314853263       1.00233009400729      -1.04215847069413
C        -2.05296432659274       3.14357050199453      -0.67323204754372
C        -0.57226790969870       3.54837214665358       1.29731500382894
C        -1.46974157546072       4.20905217307674       0.25501702418911
C        -1.43123556177213      -0.53110263262691      -0.29157582091922
C         1.99472578701251       0.12147729492360      -0.19724549895445
C        -2.08018942058116      -1.53851363744287       0.66580095733114
C         3.35233340906441      -0.03899543860560      -0.89442158830249
C        -2.71132613567072      -2.70127545889418      -0.10570726387615
C         4.37792552788898      -0.64841640326745       0.06585056756715
C        -3.35715722784674      -3.71170534740975       0.84772152522635
C         5.76142667286458      -0.72558807565668      -0.58627735149682
C        -3.98665833028354      -4.87392586604205       0.08209475702085
C         6.79433166557291      -1.30886026358385       0.37600565255086
H        -0.28185704815532       2.95660059121667      -1.88550182408512
H        -1.35363428318430       1.54561572371597      -1.96269933958486
H         1.08699552307034       2.18238944059613       1.39506329799113
H         1.14096801753782       3.30989807633676       0.03188911522429
H        -0.10997408498285       0.20997290237656       1.24915718571567
H        -1.60580722464736       1.12947672772173       1.06521516714682
H         0.64819889254128       0.43200262313808      -1.87038890736655
H         1.64676703282996       1.83522133628723      -1.45967559653994
H        -2.60412846390758       3.61802186611168      -1.48969904051497
H        -2.75309476145140       2.50413499350592      -0.12829019869497
H        -1.17302610837514       2.97199087640454       2.00660011916021
H        -0.02496193667535       4.30997588128804       1.85959976828231
H        -2.28001860271279       4.75235624966053       0.74639324663123
H        -0.88604104644593       4.92381731804383      -0.33313012764454
H        -2.19172316973809      -0.14730601583411      -0.97717051674695
H        -0.66711363462866      -1.04114081329147      -0.88278762423096
H         1.54233159330096      -0.86123585597284      -0.03607833110049
H         2.16843524241332       0.58195986062370       0.77590175348755
H        -2.84743810491845      -1.03235370465879       1.26119382567444
H        -1.32151049201626      -1.92411489930736       1.35471455596130
H         3.70995292645801       0.94422960591705      -1.21341506973431
H         3.24333528509219      -0.66462077664979      -1.78704304313425
H        -3.46816200859500      -2.31195447993159      -0.79538977407766
H        -1.94106283430181      -3.20127041968356      -0.70271365593234
H         4.43486223687318      -0.02365311700135       0.96295672418350
H         4.05159084286293      -1.64941296157542       0.36910507765207
H        -2.59810657525889      -4.09715693342491       1.53654343671855
H        -4.12569151801233      -3.20854056136999       1.44408546919227
H         5.70926658447611      -1.34562522794637      -1.48849558811064
H         6.07277515303499       0.27994362060932      -0.88676970258388
H        -4.43878463683763      -5.57841559508742       0.78018576214019
H        -3.23123967994871      -5.40027587456358      -0.50281958011338
H        -4.76035289330451      -4.51108087916122      -0.59592581330167
H         6.87245840385366      -0.68947349836172       1.27017942294193
H         6.51164679270300      -2.31909025333857       0.67686335047301
H         7.77212828817020      -1.35024475042085      -0.10469749927072
S         3.58601068680888       3.55297327451862       1.70448907110011
O         2.42100409627025       4.42251982559204       1.64757774668479
O         3.24917481085079       2.13743334196185       1.81901696644223
O         4.66783087117149       4.00186131807908       2.53502418097414
C         4.24185654458338       3.64702655413918      -0.03666745611923
F         4.72013450271264       4.84037122645353      -0.35214868391649
F         3.23328276559478       3.37722699072114      -0.90021689891824
F         5.18989545069542       2.74028683603984      -0.26172044951526
