43
C11H24F6NP optimized with ForceField in AMS.
N        -0.55189781892608       0.09683503223940      -0.09768963097522
C        -1.55365768933084       0.55265037347455      -1.11603503264216
C        -0.89658822236640      -1.29978394263732       0.32798082362098
C         0.78254549935400       0.07176798486959      -0.79131717389957
C        -0.53040761676314       0.99821155492411       1.10705718230613
C        -3.01232693041187       0.46570439398782      -0.63976616922342
C        -2.35235989369175      -1.47209135201219       0.80832317361051
C        -3.34873942584515      -0.96237347468509      -0.22818947172760
C         1.99747244230870      -0.30304812787649       0.09467480405196
C        -0.11177612481072       2.45606568129645       0.84185437182190
C         3.28540242574437      -0.33946609700670      -0.73866150756046
C         4.48941509475237      -0.71980363303888       0.11772042851365
H        -1.47570604342577      -0.07469698572283      -2.03551229746361
H        -1.34841233306181       1.58954755322147      -1.45451746243741
H        -0.24347188834900      -1.63374136013783       1.16267110931074
H        -0.73476661537501      -2.01443521261895      -0.51216922704224
H         0.99102878969316       1.05586752096663      -1.26815483458887
H         0.75324050908346      -0.65294814683942      -1.63853469762073
H        -1.52207649865572       1.03978831859145       1.59661219847859
H         0.14097518031982       0.58567499772910       1.89111776977046
H        -3.68246344368092       0.76476296653305      -1.47171950099330
H        -3.20853061205607       1.16983492396924       0.19388135563373
H        -2.51191861546810      -0.95554595769460       1.77738412813735
H        -2.54777078856402      -2.55205563151107       0.98454202679363
H        -4.37527093881893      -0.99450475183379       0.19611382712657
H        -3.32407851017702      -1.62303863818585      -1.12319718417828
H         1.85239954116234      -1.30321981664573       0.55013366770264
H         2.13537625030782       0.44404424281521       0.90262148611102
H        -0.10760199226329       3.00825318477531       1.80546600964560
H         0.91178331647503       2.52623767033847       0.42485112807486
H        -0.83171758113141       2.97276589804249       0.17772605165794
H         3.46855820021947       0.66027596316451      -1.18986526976132
H         3.18203337704759      -1.08340510303175      -1.55845542138408
H         4.34550435749175      -1.72949016004492       0.55767162832302
H         4.63267636737129       0.02040093133104       0.93343394482278
H         5.40194164165475      -0.73425408283301      -0.51363440168228
P        -4.67617808759107       0.28919558903181      -5.35668493639002
F        -3.89865880573270       1.81967441081309      -5.28039726273681
F        -4.99085521594777       0.32567268951005      -3.66909330774120
F        -6.18733017447540       1.06884095475164      -5.60337185068539
F        -5.40305650179320      -1.26638813402729      -5.41884828105161
F        -4.46445667161512       0.22355178503670      -7.06062255971954
F        -3.14352242725767      -0.43955520322948      -5.08676334060894
