36
C10H17F3N2O3S optimized with ADF in AMS.
N        -0.31490775504444      -0.98370363432747      -0.09542804451770
N        -2.32162289869977      -0.17461450225603      -0.26735185646672
C         1.08154301776054      -1.18019307016082       0.31290094660841
C         2.06532006676218      -0.40867681805589      -0.55957511115371
C         2.01693112895521       1.10394839320812      -0.35722806456439
C        -1.16477209733615      -0.07083736962537       0.39428586264598
C        -0.93990724215616      -1.66241741926330      -1.12281022452519
C        -2.19638761420891      -1.14733658397546      -1.23356590699362
C        -3.50326886322455       0.69596122830698      -0.12992607787223
C         3.10540397389409       1.81162714179190      -1.16047163081732
C        -3.25241167131409       1.89681436624203       0.75774709098428
H         1.15875996417139      -0.86952942976999       1.36653416756003
H         1.26650644697876      -2.26447683816908       0.27131418903018
H         1.87620646175007      -0.64801948991826      -1.62056938148335
H         3.07411003735492      -0.79111362577511      -0.31823633686146
H         1.03292645732715       1.49001380352771      -0.67147044179909
H         2.14378873459910       1.32809257455857       0.71998680694614
H        -0.93104290079231       0.65660131758245       1.15716438383651
H        -0.42865547423609      -2.42288904227817      -1.69853586282311
H        -3.73216589736996       1.01444365061062      -1.15941532646277
H        -4.32128377214176       0.06605202228090       0.25490621156242
H        -2.98598724172123      -1.34169349161309      -1.94622370209435
H         2.96876538309449       1.62758161463363      -2.23634150502447
H         4.10928544495758       1.45761661989902      -0.87305439385488
H         3.06719902984386       2.89940290668534      -1.00269731154592
H        -3.03149941199974       1.61314344770193       1.79923745816809
H        -4.16383415568032       2.51089111641815       0.77086410566532
H        -2.43503054280287       2.50502149723937       0.34127881733351
S        -1.51582771165610       1.96750686920045      -2.95108599744853
O        -0.93880740897055       1.98162629939125      -1.58435931295930
O        -1.75997304432715       3.27761351770311      -3.55036024847632
O        -2.57563986069351       0.95216761027795      -3.14033906220718
C        -0.08963616992811       1.28922664243327      -3.97334779677711
F         0.28713536824787       0.03373600994038      -3.55193905849855
F         1.00794261766853       2.08644442607919      -3.87167342317071
F        -0.41396282386196       1.18980914097570      -5.28487679524290
