36
C10H20F3NO2 optimized with DFTB in AMS.
N         0.39467670239989       0.22008852758663       0.17802134686694
C        -0.57542578135309      -0.29075085651112       1.20480662495852
C        -0.24651305966156       0.37151483842232      -1.17142084382277
C         1.54430057640739      -0.76144776488750       0.07473971808545
C         0.91873681040656       1.57397827306779       0.61660852065954
C        -1.33517054184811      -1.55513074915822       0.82486394728643
C        -1.55398043985884       1.15297620800909      -1.19703210749606
C         2.45460201746028      -0.57504764695538      -1.12941911162087
C         1.24325676102448       1.69855079212746       2.09664029452289
H         0.00645828388924      -0.48597182113075       2.10744605007835
H        -1.28154424387548       0.51653213581323       1.41282559929108
H         0.48358094252000       0.88063668335056      -1.80360396287801
H        -0.40981263458358      -0.63324613725249      -1.56840962653881
H         2.13261244459171      -0.65282094950782       0.99229411327019
H         1.11185984989910      -1.76279121065772       0.04383041567031
H         1.82762852617576       1.75621143985812       0.03960774237910
H         0.16688073404375       2.31715901156520       0.34569672055666
H        -1.99005680992569      -1.80104423613770       1.66085654338385
H        -1.95282182712656      -1.41923368167791      -0.06040860101684
H        -0.66782008410992      -2.39893682825319       0.66122449790973
H        -1.87331692931987       1.21484050623729      -2.23744683695783
H        -2.34161736022919       0.66097272795855      -0.63030090268018
H        -1.43242596463245       2.16697857984917      -0.82103813925620
H         3.31387976873457      -1.22794751160874      -0.97602343892036
H         1.96852784672300      -0.86000104517715      -2.06216901510318
H         2.82749705003422       0.44417195668961      -1.20339725659348
H         1.80826754441473       2.62291714644097       2.21509965314903
H         0.34505657073581       1.75794317042030       2.71033750093285
H         1.87476176695413       0.88199347140003       2.44155492831221
C         4.34831536059663       0.72158802835421       1.35031231778629
O         3.77394478244929      -0.13200595606368       2.03119567896157
O         3.90207701641888       1.51372761754420       0.51698175210232
C         5.93579482173487       0.80012007163741       1.55821297479495
F         6.57982252870154       0.21497173871409       0.52623180047931
F         6.34861326862157       0.18132939018276       2.67386015839767
F         6.37846515608695       2.06677627645039       1.62492550144936
