40
C10H15F6N3O4S2 optimized with ForceField in AMS.
H         0.47067227758685      -0.44503041631016      -4.90709641134404
H        -1.18387608818216      -0.68177837456036      -4.21468350205727
H         0.01291562447740      -2.02942784239483      -4.16223577383324
C        -0.10800379479059      -0.93102931643875      -4.09415385352365
H         2.51269402744612      -0.07100824791031      -0.37343257958302
H         2.42808012589995      -1.16591082068656      -2.81213621318527
H        -1.35356124674578       0.47390244259994      -1.95138689332565
N         0.38214933360986      -0.47394412121741      -2.80207551599227
C        -0.31299407264258       0.18793251217106      -1.85830661755900
N         0.44957187238536       0.43126807316446      -0.77530911280566
C         1.66270449684794      -0.09377872848117      -1.04307918679272
C         1.62035817864401      -0.65584424125939      -2.30298135730272
C         0.03748448656888       1.11002998235834       0.44935980501152
H         0.82917675707887       1.82751641505442       0.75721615776856
H        -0.89488180219572       1.68682553188456       0.26079382676479
C        -0.21353078590913       0.08669421997351       1.55937674422687
H         0.71990748708739      -0.48744851473884       1.74859954107855
H        -1.00220348372486      -0.62320864604052       1.22498835667892
C        -0.66182365249832       0.77704023475227       2.85141792263387
H         0.12482125966553       1.48674412234686       3.18845164413734
H        -1.59677119314696       1.34953419087652       2.66549960809630
C        -0.91814953737652      -0.24034824252198       3.95902143560972
H         0.00825272999037      -0.81219834727922       4.17957383595315
H        -1.72160636293010      -0.94542440123012       3.65677785239417
H        -1.23781078180098       0.28784816128928       4.88178510482740
N        -1.38105284125717      -6.38404562833803      -4.39547221198528
S        -0.49602641778605      -6.25544483274170      -5.76950972124738
S        -2.99287185486610      -6.08763051732153      -4.34498798338736
C         0.18529644684144      -4.61482715330246      -5.87303298931471
C        -3.87096761682018      -7.63449128258806      -4.42346405528752
O         0.63272252983874      -7.24608206085564      -5.72426866473342
O        -1.34971043493065      -6.51923440837858      -6.97884790293228
O        -3.41339784007090      -5.21372518590917      -5.49415192919508
O        -3.32849621948219      -5.40749585803349      -3.04785111614459
F         0.96148777496783      -4.50417455744022      -7.01047109478105
F         0.96819008176039      -4.37104907812561      -4.76074587574491
F        -0.83970620979217      -3.69050835353894      -5.92884990381835
F        -5.23179496994348      -7.39650143927139      -4.39847241191830
F        -3.52393169373776      -8.41888965157415      -3.34018760749562
F        -3.54358052666657      -8.29677668078264      -5.59088689439084
