64
C18H26F18NP optimized with ADF in AMS.
N         1.19659608312198       0.24095605944473      -0.34227937752912
C         2.14458160329075       0.27132228087550      -1.52922675494168
C         2.13873779506052      -0.12162208906212       0.79590345964421
C         0.56799505520372       1.59431100110801      -0.09355373234738
C         0.16472926684308      -0.84816678346575      -0.55147416476135
C         3.04301259226660      -0.94378271825473      -1.33326718173634
C         3.12770177946259      -1.13178323613244       0.20360714271048
C        -0.31405385892439       2.09428511007538      -1.22238689275069
C        -0.92675389222326      -0.92050079593816       0.50294257456686
C        -0.90479940565163       3.46040844131928      -0.85886279815670
C        -1.79283317051943      -2.16670550497919       0.29579493267160
C        -1.69823470382800       4.06507198744376      -2.01253171938534
C        -2.91441853687752      -2.26438976665291       1.32658306102468
H         2.71189402455519       1.20508949399499      -1.43414941914775
H         1.56609129452790       0.27731345903051      -2.46066747433406
H         1.55089529945642      -0.48850191006546       1.64579052873672
H         2.64418336184922       0.81287090477248       1.07441210573622
H         0.01000209885538       1.51245742323291       0.85149526518959
H         1.40836140427451       2.28076407094587       0.06776416810396
H        -0.27134361821614      -0.67655111707722      -1.54655878497529
H         0.72201132457951      -1.79505840493624      -0.58838197609862
H         2.62254325067665      -1.83670625667982      -1.82034708191244
H         4.02622087520043      -0.75580872873948      -1.78356337789780
H         4.13575790011839      -0.91006725752873       0.57928357260226
H         2.88193249183086      -2.16412346837732       0.49309375805680
H         0.28478660396034       2.20391727439255      -2.14230903267174
H        -1.13674628968452       1.39007620453237      -1.43973085519546
H        -0.49201020308619      -0.95356661947568       1.51668851974064
H        -1.56799628819743      -0.02527027613094       0.45539083348490
H        -0.08751161653262       4.14144324232193      -0.57669112272711
H        -1.55131678984231       3.35467266071849       0.03114182318071
H        -2.22358282289591      -2.14911345418310      -0.72155731046517
H        -1.15659223844837      -3.06779837618672       0.35094028079366
H        -2.53961906470032       3.41734020041790      -2.30763503697741
H        -1.05282235992713       4.20968977543251      -2.89345264488253
H        -2.10689246909900       5.04733769790579      -1.73384306729718
H        -3.57885871827319      -1.38815981953983       1.27166608795059
H        -2.50794364314665      -2.31597244646313       2.34895870482811
H        -3.52657793291791      -3.16331598258773       1.16137010475953
P         4.52296904963100       4.02663537349999       0.07577779849423
F         4.93974822684622       3.78141166611322       1.66558284419886
F         5.33213545186767       5.45863021815413      -0.06364796695499
F         3.67617988701387       2.53689493634556       0.12442359205577
C         6.22454323909027       3.09221806224151      -0.29045531227328
C         2.94297898246045       5.05956564471180       0.86065553288733
C         3.78662143678695       4.20288503214219      -1.81764721524141
C         6.35335384652869       1.57213353427717       0.04011483199123
C         2.24026574745673       6.31805702897753       0.23583588164556
C         4.25090682926303       3.46902197626060      -3.11864630419519
F         7.21078243176974       3.69229022994725       0.45626063093712
F         6.61695383904823       3.20913552318041      -1.60770338943905
F         3.38064070450941       5.56111060947493       2.06395265298933
F         1.89819142455033       4.18614436569055       1.15941358123581
F         3.77986092268208       5.52734079386244      -2.17750044721258
F         2.44903338811485       3.80272017563547      -1.71356134385116
F         7.64686717747289       1.18107058632765      -0.11400129156935
F         5.60512301440883       0.80580204011014      -0.80649031472595
F         5.98169799314494       1.27018197105529       1.30531883421824
F         1.39394641281118       6.83848007867007       1.17637513489998
F         3.13270688974172       7.27286598575736      -0.09209754913394
F         1.47565199935890       6.04392852919299      -0.84918306562856
F         5.35269640358900       4.01876778734900      -3.65890639635029
F         3.25878207865281       3.55949903114867      -4.05716681132691
F         4.46458998365808       2.14167695486583      -2.90639486154114
