52
C16H16F18NP optimized with ForceField in AMS.
N         1.78023300200224      -0.06144562138563      -0.51547279134976
C        -0.60410444948457      -0.02792120577958       0.10369978588523
C        -2.04156135792617      -0.02904859805064      -0.43010747997142
C         0.41023395786966      -0.06931262380327      -1.04411100525800
C        -3.05647193568810       0.02392459074015       0.71757084979973
C        -4.48781139525401       0.02062676166151       0.18800872627601
C         2.38098479077865      -1.24113711067066      -0.16878943357370
C         2.44574296747274       1.12501742818564      -0.36705121036559
C         3.68456133839818      -1.25259442330105       0.33394071061815
C         3.74972600551436       1.14895858217634       0.13389879508156
C         4.37106744871393      -0.04882737303254       0.48374269417602
H        -0.45156959514702      -0.91330143523772       0.75919917540391
H        -0.43322312094114       0.89089378627418       0.70677233546982
H        -2.21056786593002      -0.95164119430071      -1.02831526184322
H        -2.18932040454442       0.85324162723267      -1.09147205935080
H         0.24557683932798      -0.98013532886385      -1.66237635325337
H         0.25071570677083       0.80535188901658      -1.71402358071893
H        -2.89730263219609       0.94700500728550       1.31669242095489
H        -2.91725249544653      -0.85615611586563       1.38266374884005
H        -4.66123280068593       0.90499261135471      -0.46159565920302
H        -5.19963918166473       0.06075164855912       1.03930486609956
H        -4.68202516024332      -0.90563029233147      -0.39375595185050
H         1.85271959522192      -2.18089248876670      -0.27858298189085
H         1.96872553094640       2.06147011905108      -0.63133995944779
H         4.15707664816205      -2.18749430225155       0.60625602369996
H         4.27234237503762       2.08951163210344       0.25112320838198
H         5.38082817377893      -0.04378930053967       0.87334261926901
P         7.59060751139585      -2.58730933528564      -4.10511326609581
F         8.65438965819518      -2.39756673119710      -2.76152864078456
F         8.21540648051113      -3.91099804749754      -5.01443917979865
F         7.00855424143382      -1.37647609008883      -3.02998384690040
C         7.04404513996243      -4.13789666202372      -3.09136234221922
C         9.15018679453041      -1.73219003127453      -4.87418772894404
C         6.17871718638584      -1.93661268027260      -5.23031814809889
C         6.28035692619618      -3.85881128548864      -1.77729096575393
C         9.20708889348230      -1.59102859455340      -6.41922938591798
C         4.73078387709606      -2.09672354441723      -4.73422049391041
F         8.17161169899818      -4.87148797518892      -2.73973129164473
F         6.26044575757078      -4.96462374232537      -3.87990086487540
F        10.29373493834479      -2.43577510871473      -4.50797323902850
F         9.25593497033034      -0.45595032112361      -4.34349404654095
F         6.27163402158045      -2.57818305156215      -6.45262376815176
F         6.36371022033595      -0.58069114260721      -5.43493743271077
F         6.03278880323682      -5.06280174253995      -1.14177984393809
F         5.06759216289974      -3.25098648308837      -2.00802879793518
F         7.02299575018394      -3.06899892175201      -0.91928614451268
F        10.48263249390067      -1.19145973568277      -6.77893222605847
F         8.94391653653058      -2.78308278694015      -7.06663509692822
F         8.33675665465515      -0.62477526299482      -6.87925233388002
F         4.40873279917942      -3.41926324591487      -4.51684574766294
F         3.87476652804632      -1.61655888994093      -5.70965425536091
F         4.51162571887428      -1.35477644968514      -3.58805204732640
