38
C12H19F3N2O2 optimized with DFTB in AMS.
N         1.97001462283324      -0.74003584556354      -0.38123947897349
N         3.26201562934015       0.97451309946187      -0.22651963886917
C        -0.29807378371721      -1.72098927833057      -0.35508784654214
C        -0.98590603127379      -0.39129932249456      -0.67487554393409
C         1.11429466344602      -1.78573095071285      -0.94110484900364
C        -2.39515512662839      -0.31986572933725      -0.08290437482484
C        -3.04525762975135       1.02506293267081      -0.42517981780488
C         2.60653872080579       0.19440925648826      -1.08442112535130
C         2.20157658706203      -0.53351484272744       0.95440943874226
C        -4.45678166725667       1.12538014301460       0.14849062786536
C         3.01205880738391       0.55232667407290       1.04953568462416
C         3.97673185147986       2.18245607736276      -0.60334442684926
H        -0.25421153855233      -1.87422571833048       0.72794573949780
H        -0.86684532556637      -2.55004039934978      -0.78663746416223
H        -1.04438556445774      -0.26965713025222      -1.75970695968927
H        -0.38537683837842       0.43110897642630      -0.27619937489535
H         1.08943091558085      -1.63769140400194      -2.02295959802295
H         1.57704521408363      -2.75322270959140      -0.72082391867670
H        -3.00343866762362      -1.13942261314068      -0.48224188914779
H        -2.34345711848876      -0.44217976202381       1.00561612090460
H        -2.42736272894257       1.83610519638328      -0.02861957713409
H        -3.07888991977477       1.14348503537158      -1.51213373293543
H         2.61722080032162       0.28269869098933      -2.15646194174526
H         1.78251742598387      -1.16598562626448       1.71661135546908
H         3.42501758060237       1.04947152428664       1.90968379645611
H        -4.43803094107056       1.03302157727914       1.23609227034808
H        -4.89521043586137       2.08952487852902      -0.10973253253060
H        -5.09344221563315       0.33588947437635      -0.25483447516356
H         4.75703030975539       1.93462177403620      -1.32250379300476
H         3.25899946088324       2.86622244835023      -1.06176779054895
H         4.41489171157705       2.62729354763899       0.28735804807879
C         0.23134361815460       2.12903041487297      -2.34431252848520
O         1.37186675319793       2.20721402129135      -1.87243406005012
O        -0.85401880293828       2.52396743545851      -1.97217866382854
C         0.20976322043943       1.23938216388332      -3.71689067664660
F        -1.01392550822302       0.91517438651384      -4.14662565800950
F         0.85163769328544       0.04375143383593      -3.48303911251368
F         0.86350786712196       1.80405176802680      -4.74292245734285
