55
C15H32F6NP optimized with DFTB in AMS.
N        -0.81487836854039       0.84667144265927      -0.03333851814844
C        -1.19645437890215       1.88625916350518       0.98169928708436
C        -1.94806473115407       0.66254594597570      -0.99871578743363
C         0.35888619405457       1.36084733979919      -0.83097219442806
C        -0.48469338890561      -0.44352695041453       0.67452240493933
C        -2.49101487249599       1.55047527609912       1.70881481964304
C        -3.27074041435577       0.31812648131668      -0.32182592342681
C        -3.64163547500563       1.37136780979540       0.72118133249897
C         1.59720405195256       1.68316790309609       0.00121971468972
C         0.20645458446382      -1.50311287262997      -0.17683781943328
C         2.81825113108264       1.85883166134100      -0.90653888156200
C         0.29255479272890      -2.79787931437066       0.64284208609693
C         4.05833548602698       2.17084555789853      -0.06143877392418
C         1.07438630832180      -3.87599419467214      -0.11181259685680
C         5.31143108320698       2.26719663946006      -0.92844269847020
C         1.18923724413130      -5.15231867653759       0.71955039001250
H        -1.29979848452699       2.83392839254514       0.44493141310733
H        -0.37705351559476       1.96318905642773       1.69713153899554
H        -1.66000256574837      -0.12291976527218      -1.70038646609017
H        -2.05297550522693       1.60188246029730      -1.54926828249058
H         0.01275532498503       2.25793559986383      -1.35277574353977
H         0.58697153681911       0.60023371239130      -1.58114187445135
H        -1.41971236701663      -0.84370728434593       1.06702581906973
H         0.15014193394909      -0.18863308823032       1.51978684800988
H        -2.70839253227039       2.37985326780033       2.38644825333948
H        -2.36606587721195       0.65130582615106       2.31644069416242
H        -3.22262255048581      -0.67056825483610       0.14090262920213
H        -4.03524844906072       0.28004096156103      -1.10249617852499
H        -3.85058468106186       2.32342262301878       0.22198905105379
H        -4.54396702741064       1.06026552386876       1.25237686574540
H         1.43490172664865       2.59955252175745       0.57349276539364
H         1.80148582658722       0.88014928789141       0.70590971979730
H        -0.34121030068398      -1.68783569588413      -1.10672361858127
H         1.22002193866416      -1.18250765135445      -0.42906699505606
H         2.64035479310759       2.66834825024463      -1.62364209519070
H         2.98331855447051       0.93672742675489      -1.47506204601762
H         0.79024468361756      -2.58258546381899       1.59214485455281
H        -0.71789915670215      -3.15838839389904       0.86379913890136
H         4.19112134819614       1.38484364130162       0.68802115910025
H         3.90500769661695       3.11629779734820       0.46851885883008
H         2.07708659672625      -3.50119014706240      -0.34220543245386
H         0.57313589734680      -4.09866533132860      -1.06084267424648
H         6.17645533240452       2.49491292991032      -0.30573463851870
H         5.49379454982697       1.32309967368517      -1.44387671381420
H         5.20340922557799       3.05553088635748      -1.67537476290796
H         1.75580329852641      -5.90549891208861       0.17163000143774
H         1.70077421237874      -4.94704934770224       1.66024619292561
H         0.19983217993919      -5.55437592954494       0.94243399800191
P         1.88773196320273      -0.12753334142162       3.58906288226390
F         1.49512944402616       0.44688241349954       5.05867612063589
F         1.09092428555225       1.18986954412072       2.87642554306224
F         3.27588537170930       0.73024102652668       3.56567312120357
F         2.22878161474115      -0.68503518547501       2.03909528220386
F         2.62898185878835      -1.42655565673948       4.22284267188280
F         0.44516725668240      -0.95911931594064       3.51331809102361
