49
C15H31NO2 optimized with ForceField in AMS.
N        -1.55687006310986       0.11498533091467      -0.07932264090564
C        -2.58091595387635       0.51563623252171      -1.09938349175964
C        -1.80048102344388      -1.31047601018448       0.31705374530202
C        -0.21863473240466       0.20112467194038      -0.76044035513898
C        -1.61454013336707       0.99229629148333       1.14227893716364
C        -4.03643827765736       0.29592719612488      -0.65215875940594
C        -3.24013374613503      -1.59453428216857       0.78880478046014
C        -4.26013742492614      -1.16034676216135      -0.25844580483669
C         1.00934803604915      -0.12994300253398       0.12348711612476
C        -1.25940746082840       2.47411074107367       0.92038337894389
C         2.30861667745835       0.00870333962400      -0.68064078275090
C         3.53095185148656      -0.31921155539398       0.18562468418036
C         4.83101153706109      -0.14629611789431      -0.60769309743399
C         6.04844162155845      -0.48197988444632       0.24928856747304
H        -2.44119213045740      -0.07649552480507      -2.03430205826040
H        -2.45777646783711       1.57517359843746      -1.40567451664184
H        -1.12525103611360      -1.61554588925592       1.14527207788652
H        -1.59009267820422      -1.99219947877585      -0.53798581284495
H        -0.07275195758303       1.21307223504872      -1.20009868975233
H        -0.19216825994080      -0.49386879830837      -1.63215910736054
H        -2.62158575089288       0.97691261415666       1.60156253627769
H        -0.94656711612671       0.59756576639683       1.93804967075468
H        -4.71372143701677       0.54531731594881      -1.49753570552821
H        -4.30830764522246       0.97187965121249       0.18437238635432
H        -3.44740767911504      -1.09135246746058       1.75619802653150
H        -3.35122039311358      -2.68633152559622       0.96563754091658
H        -5.28682087478030      -1.28252945808023       0.14890610544203
H        -4.16721206556613      -1.80821255633639      -1.15817654239109
H         1.06776527878632       0.56119407331699       0.98853115447596
H         0.94594714254547      -1.17171012603464       0.49871436608368
H        -0.21983696234144       2.60422350303572       0.56012202660291
H        -1.96796448649206       2.96737670856384       0.22656681434527
H        -1.33367390604367       3.00652296638952       1.89219465635027
H         2.39583494772764       1.05102104634018      -1.05964100142938
H         2.27998989758350      -0.68300654962717      -1.55139791153394
H         3.45506303970165      -1.36929037862446       0.54510220350276
H         3.54872065048665       0.35690091689087       1.06900888819907
H         4.82050417094830      -0.81486859031146      -1.49602923691289
H         4.91822859599703       0.90511699017931      -0.95895676540810
H         6.00275535031104      -1.53933945242806       0.58675693071716
H         6.97421409925211      -0.33946528147673      -0.34706423097082
H         6.09219873235550       0.18484016280985       1.13680859515106
C         1.42737567654110      -3.39573766931942      -3.09865023402501
C         0.94573936024379      -3.77206196126417      -1.73326363731147
O        -0.21760903810825      -4.10073907488738      -1.56727589670464
O         1.71232345047894      -3.75668035796532      -0.78388239836417
H         1.29073722832375      -4.25317165468190      -3.79111263278196
H         0.84585655436609      -2.52728126484731      -3.47312974517638
H         2.50429592094174      -3.12320226684027      -3.07342094340942
