52
C14H18F18NP optimized with ForceField in AMS.
N         0.42118713554498       0.23558389275422       0.04444727296652
C        -0.52970440083417       1.27658523604314      -0.46156947954553
C        -0.09183945631570      -1.13340399647993      -0.27083093805387
C        -1.98944611292017       1.07483075176323      -0.01348304608483
C        -1.53470892419678      -1.37538063507080       0.20546148857009
C         1.72290074144460       0.46553763692085      -0.66574207596705
C        -2.47803655927207      -0.32480298649631      -0.36731138989777
C         0.62270703455153       0.40214315347110       1.51000125762659
C         2.87639629660022      -0.47499018699288      -0.26992867782158
H        -0.53338848987522       1.28644359757889      -1.57667943477417
H        -0.20428811775678       2.29204166736513      -0.13879820372261
H         0.54140628456618      -1.91387561670482       0.20366431983518
H        -0.06044455583617      -1.31291987224225      -1.37024615744990
H        -2.63088760708981       1.81939383026526      -0.53284655045119
H        -2.10470164386491       1.25843228354045       1.07459761048937
H        -1.58690011291167      -1.37162942330218       1.31482421333407
H        -1.86496258034392      -2.38041580724056      -0.13555489988388
H         1.58424346563972       0.36482634401721      -1.76672727919496
H         2.07478965674238       1.50879339194437      -0.49271924638092
H        -3.49925027987784      -0.47723345247636       0.04383759518537
H        -2.53028540368303      -0.43441440852978      -1.47269137620663
H        -0.33191389385464       0.40219836455437       2.07037838965223
H         1.22370729783661      -0.42925422216093       1.93579745646572
H         1.13875924754526       1.36165359535733       1.73659186314072
H         3.77008591977794      -0.21644367946044      -0.87621387097126
H         3.15938235421840      -0.35138216002330       0.79462575359836
H         2.63471324934896      -1.53541016772225      -0.48181256003277
P        -4.73108722647201       0.13988868141425      -7.03916956904073
F        -4.55648166744848       1.00288800655862      -8.51890144617972
F        -3.58725147093182      -1.14341340951119      -6.91185108297729
F        -5.74051897271446       1.51378678316633      -6.80827258859725
C        -3.07281915337722       1.09221006117864      -6.71523349926687
C        -5.62158404895973      -0.91798299474779      -8.39524103363772
C        -5.68502305605986      -0.33904585469810      -5.42759431485024
C        -3.11011963369964       2.64317988160064      -6.78145759926934
C        -6.15571565912361      -2.30289497843831      -7.97188148656668
C        -5.27865016776153       0.38108689816240      -4.12665552994622
F        -2.13021811609533       0.68649301996448      -7.65207278359907
F        -2.57405182561218       0.74546581035821      -5.47543956791161
F        -4.74465527964728      -1.16010223782150      -9.44885538218302
F        -6.70249578250203      -0.19898734832230      -8.88646790323996
F        -5.49357756005837      -1.68732520943049      -5.18517848623136
F        -7.04690785382795      -0.14328516909997      -5.61267986088483
F        -1.87970775165642       3.13292690263084      -6.37948391149088
F        -4.06618858392377       3.18249378195956      -5.94808335855802
F        -3.33513892518015       3.09139021547939      -8.07067621473372
F        -6.59914808476845      -2.97071717063772      -9.10054691736258
F        -5.16622857104069      -3.07284580448043      -7.39006641244391
F        -7.23028575699698      -2.19182572406066      -7.11229397817381
F        -4.05110059802309      -0.06816185943481      -3.68016821820425
F        -6.20797771235458       0.08670892926447      -3.14442922366247
F        -5.24810856774825       1.74939438057267      -4.27809052461373
