44
C12H24F3NO3S optimized with DFTB in AMS.
N        -1.41638116499699       0.54378127458982       0.09423801068825
C        -1.76887739245508      -0.10492264658248      -1.21476577944744
C        -2.49835835918500       0.05517802204619       1.00574328381272
C        -0.07669498601877       0.07760521846496       0.57680541978341
C        -3.28996575797192      -0.05017902984594      -1.29317260613373
C        -3.77082751735228       0.07423590962465       0.16090396384103
C        -1.47069805671401       2.04107454990274      -0.05587502861848
C         1.08045357947053       0.49730228039497      -0.32824029994003
C        -1.14898866086170       2.82282331257096       1.20624800689901
C         2.37965513694107      -0.15345330042193       0.15677256720395
C         3.55556525414476       0.26417130367947      -0.73244224069907
C         4.85982881971945      -0.37947767322017      -0.26694477620288
H        -1.28040154662268       0.42494960976700      -2.02908633519292
H        -1.41026655982486      -1.13624666648670      -1.17544504889956
H        -2.24344954968423      -0.96510067754879       1.30309081639959
H        -2.55182438597480       0.68144722304328       1.89517377379214
H         0.06062104197451       0.46654789967624       1.58898743235873
H        -0.12684053637150      -1.01372360112608       0.63509497200459
H        -3.60510985700112       0.81063765908908      -1.88635522834584
H        -3.67373406526790      -0.95421459351971      -1.76808340008335
H        -4.42131361425585      -0.75396994043552       0.44726204686709
H        -4.32064274947364       1.00533008056254       0.31111628969867
H        -2.47136219746781       2.28887459962510      -0.41070525641601
H        -0.76238458897580       2.30292126952800      -0.84233420109526
H         1.19623973013615       1.58296165498877      -0.32087704388938
H         0.88237029941041       0.19492256249976      -1.35857088535692
H        -1.83047174075513       2.59573628346491       2.02540338540401
H        -0.12592275384796       2.65490271004899       1.53930505445142
H        -1.25433162807857       3.87962672219092       0.96090697315169
H         2.27311602864935      -1.24385097272508       0.13770841021645
H         2.57586692704439       0.14532958911581       1.19272447256055
H         3.34985500538366      -0.03148632577427      -1.76591074076059
H         3.65695543569975       1.35385263875903      -0.70992232304123
H         5.67918082978222      -0.06837868485052      -0.91482333313208
H         5.09214306386797      -0.07918779816053       0.75591028518773
H         4.78388385220140      -1.46728654496123      -0.30073740284093
S        -1.09681250432328       2.41151370355140      -3.55858490778374
O         0.04997008824265       1.99601384554618      -2.74741164472448
O        -2.33607277138310       2.47556469524231      -2.78603186334365
O        -1.20426295780941       1.75738085032387      -4.83598309078403
C        -0.72954507358229       4.18968488070431      -3.91213107742612
F         0.35380438628773       4.32173813537869      -4.66599924321052
F        -0.51354286598444       4.82835428687759      -2.75935315984483
F        -1.74521804101588       4.78145226360145      -4.52668471090799
