40
C10H22F6NP optimized with ForceField in AMS.
N        -0.51514049029948       0.00995497546813       0.00156711136464
C        -1.43476421260104      -0.55908204072777      -1.03109877212399
C        -1.41590828027806       0.60343115592149       1.03685444662293
C        -2.84114889234591      -0.07658404493021      -0.73411496904117
C        -2.83372702638089       0.15020209275423       0.75035518937637
C         0.33166450478464       1.07951671929917      -0.62072164236438
C         0.30414881790387      -1.08228139609318       0.62201143230110
C         1.34095690148194       1.74203291270153       0.34644083713073
C         1.30146304452782      -1.76654494649601      -0.34348107068956
C         2.06960918542070       2.89862910455114      -0.33130076485599
C         1.97298319214151      -2.96203648878946       0.32616840972998
H        -1.15513695957109      -0.27866738889676      -2.07222534654441
H        -1.46471193322401      -1.67257088122889      -1.00113987555819
H        -1.13581614969781       0.32236664374360       2.07765752468692
H        -1.42261414810199       1.71707719328107       1.00074670545729
H        -3.03046265252567       0.88415713122310      -1.26251150950753
H        -3.60919668565361      -0.82529172417647      -1.02677986148006
H        -3.03911757241218      -0.80626589813458       1.28039824994909
H        -3.58352593426713       0.91510457813927       1.04843622121765
H         0.89437087187994       0.67438267205147      -1.49078617641546
H        -0.32641083015254       1.87605734424682      -1.04061247464985
H         0.87363761475768      -0.69601043398564       1.49622506382931
H        -0.37529630113017      -1.86332548470975       1.03700065591506
H         0.83045275362595       2.13195757609256       1.25097002100509
H         2.10392674535023       1.00688989109048       0.66788944511898
H         2.10000450145041      -1.05781902085737      -0.64406368169678
H         0.78751578886455      -2.12233434713654      -1.26022562953749
H         2.63183697081597       2.53212331140808      -1.21674075946051
H         1.34569881562571       3.67804152998463      -0.65144090515654
H         2.78904377302905       3.35419132690664       0.38161243561198
H         2.54043613520212      -2.63072807751293       1.22177608228736
H         1.21349298199272      -3.71376866128903       0.62973603256608
H         2.67925268440651      -3.43989811569251      -0.38504719074289
P         5.10239383174426       0.57955753850223       2.47404656020249
F         3.56911041186035       1.17406806991315       2.97368619890257
F         5.66361472685694       2.20329650845258       2.42483940062860
F         5.63028240861214       0.44195602070721       4.10392316207582
F         6.64235827472413      -0.02946712617800       2.01432384770626
F         4.44069456079185      -1.00549852733944       2.52953952387425
F         4.70296292379057       0.68826524813593       0.80623633516426
