43
C11H24F6NP optimized with ADF in AMS.
N        -0.98770563004456      -0.05344674946024       0.13160247485830
C        -1.22852677560814      -1.32120532479213      -0.66794891450210
C        -2.23025163305228       0.08008978236853       1.03701936181020
C         0.26478658551876      -0.16382157640019       0.97723900228374
C        -2.73389845410459      -1.38251077510393      -0.84877253341053
C        -3.24579182637289      -0.95033291203933       0.53044170970728
C        -0.91918972128956       1.13115560962247      -0.81988774366657
C         1.54551496025102      -0.35017583745468       0.18662821148369
C        -0.55395129081307       2.44723975512411      -0.15726732539007
C         2.73082796319933      -0.43890230466614       1.15391013242312
C        -0.77268455732855       3.60714454671123      -1.12708163643018
C         4.06187927538502      -0.60600726869412       0.42733018532393
H        -0.64010386203055      -1.28914436924745      -1.59262878185564
H        -0.87985572636162      -2.15596454340627      -0.04125702795515
H        -1.91086896007564      -0.06716426487636       2.07585277879701
H        -2.57869395247926       1.11415738989568       0.96075378258965
H         0.08809319025281      -1.01538042908061       1.65155787509703
H         0.30529976023143       0.73336713049810       1.60824516638082
H        -3.06323311041214      -0.69280589078962      -1.64166757390431
H        -3.06232892373737      -2.39301973709635      -1.13129961282622
H        -3.27263372532032      -1.81772368469157       1.20780640213777
H        -4.25937162732897      -0.52786321800086       0.49339510806375
H        -0.19246506230780       0.86665600942096      -1.60255188146094
H        -1.91287789695813       1.19324062133303      -1.28974004477774
H         1.50979539409329      -1.26426129841440      -0.43209217275294
H         1.71020196836003       0.50091645388710      -0.49603702042839
H        -1.14095328326518       2.60732567098627       0.76015624853337
H         0.49763342462234       2.42896748646613       0.16614947009841
H         2.74799474906152       0.46836643547827       1.78101317996616
H         2.57265699675175      -1.28576935120581       1.84452178263545
H        -0.17551583060395       3.49203923184960      -2.04603089989878
H        -1.83194565129937       3.69374267073856      -1.41623646897547
H        -0.47874196371742       4.55261213588709      -0.65003867420185
H         4.89717330639122      -0.66408792389757       1.14154778412873
H         4.07331499808988      -1.52614359955101      -0.17898355799794
H         4.25561066440637       0.24445758493189      -0.24576194051106
P        -0.69143161469625       2.20806888163651       4.09489579739986
F        -1.89172595089114       2.38381068913096       2.93081194625196
F        -1.83783967423475       1.99284147741669       5.24252965780624
F        -0.70028100870592       0.55058895895887       3.78482178264498
F         0.51380546023149       1.99391621743602       5.18052323028727
F         0.45101011848247       2.37931552786147       2.86865954754679
F        -0.68393512898930       3.82792954082907       4.32699788579041
