49
C15H31NO2 optimized with ForceField in AMS.
N        -0.69956638300657       0.52870828595462      -0.21195128986448
C        -1.67212097850290       0.27238964435732      -1.32384224600826
C        -1.25718960811759       1.60307472543966       0.67391378872338
C         0.55865227301112       1.04266692210406      -0.85468553783729
C        -0.43951684314499      -0.70943319039730       0.60343710853902
C        -3.08906844566248      -0.08845747205557      -0.84678328368598
C        -2.67774558438544       1.31018787825866       1.19861000629611
C        -3.64283547026139       1.01051618634027       0.05499846903193
C         1.74874155349090       1.29866323559650       0.10303543535962
C         0.23408092085711      -1.88168639465550      -0.15110457030629
C         2.95397513122313       1.84545150641357      -0.67136313811332
C         0.46375390863371      -3.06811556029434       0.79364988198679
C         4.15172781687620       2.06055445733597       0.24965527585240
C         1.12697215817034      -4.23401672844537       0.06574365843664
H        -1.30997044349481      -0.52106127342748      -2.00992037977057
H        -1.77049209539501       1.18269334271618      -1.96109141909397
H        -1.29703603464330       2.57517958579403       0.13005856450800
H        -0.61187316713232       1.76131886700553       1.56429456954924
H         0.34779898821096       1.99955513671570      -1.38669121085814
H         0.89835402097770       0.34574772862295      -1.65269324175833
H        -1.37936130448306      -1.10395779721877       1.03529289380111
H         0.18203407869489      -0.45916427367413       1.49112489410455
H        -3.10338840217724      -1.06716431509599      -0.32467539273011
H        -3.75152755773537      -0.19112673543834      -1.73327095009756
H        -3.04595631469980       2.20073437660609       1.75264521930190
H        -2.66850874200955       0.46881648563034       1.92232735129414
H        -3.80589643800368       1.93411145723314      -0.54313145689496
H        -4.62377715790300       0.69290076315492       0.46946446344907
H         2.06044576571721       0.35751266042585       0.60026279238864
H         1.47210285345507       2.03990597072921       0.88025931672132
H         1.21738859505982      -1.57570751542120      -0.56224386001586
H        -0.41153965487223      -2.22726354310030      -0.98352073220598
H         2.68552965986286       2.81494582070863      -1.14508234383873
H         3.24170585128741       1.12976270709345      -1.47239439323246
H        -0.50952090271245      -3.41090773570218       1.20821548906514
H         1.11501064257051      -2.75500008818844       1.63896129442329
H         4.46005375576387       1.09858697171331       0.71201596576850
H         3.89783844747591       2.78744234137717       1.05040508295909
H         5.00465163184409       2.46145800720970      -0.33734599987481
H         2.12004797708253      -3.92844698054056      -0.32720464550959
H         0.48881122849111      -4.57618464082539      -0.77663740915418
H         1.26848898731041      -5.08042416862378       0.77041106327690
C         0.92472228690872      -0.72491314563920      -5.33208500878373
C         1.32422924184487      -1.55262705906082      -4.15134698038123
O         0.61095197556245      -2.47142118150063      -3.78211339025713
O         2.36254391852407      -1.31477050364270      -3.55533435606472
H         0.85674460654350      -1.36931131591541      -6.23413680655695
H        -0.06431688125732      -0.25729918413740      -5.14208832751813
H         1.67057713265003       0.07708709716392      -5.52059052712403
