16
C6H8ClN optimized with ForceField in AMS.
N        -0.74131501547789      -0.00160974170351      -0.00014179986455
C        -0.06842790813659       1.18920637304467       0.00281040628787
C        -0.05708399117810      -1.18595334607923       0.00192806367397
C        -2.20520105192434      -0.00859424088323      -0.03592119059634
C         1.32804968591296       1.21361605258163       0.03504292829363
C         1.33957678184370      -1.19706628618190       0.03413860966697
C         2.03308882041277       0.01161289092839       0.05454983338408
H        -0.60801258653641       2.12889608008432      -0.01743894112645
H        -0.58768844310223      -2.13072277227317      -0.01898241600451
H        -2.60848400178167      -0.90661754571178       0.48077860461344
H        -2.61711671012342       0.88540492579132       0.48097195513866
H        -2.55179556812156      -0.01014062597750      -1.09071171776866
H         1.85801754058246       2.15716221005872       0.04527414568828
H         1.87855207791846      -2.13550744970228       0.04367210103819
H         3.11407075561294       0.01683663329458       0.08306054142531
Cl        6.03935563889890      -0.22171605077104      -0.85293786634988
