40
C12H22F3NO2 optimized with ADF in AMS.
N         0.33916659612588       0.22418175278113      -0.14229059967408
C        -0.90423356555779       0.35897978511955      -0.99728569848081
C         0.09493130387804      -0.81642638441314       0.93869212381566
C         1.45322050660530      -0.26578919193766      -1.05095841998931
C        -2.14744513589108       0.69053610096697      -0.18925069940409
C        -1.14908034794957      -0.53286417877912       1.76452994140658
C         0.70696216390268       1.54530614909369       0.52491428380355
C        -2.39101546938275      -0.36553011722446       0.89022484965916
C         2.79667558124838      -0.50629558645900      -0.38726463034766
C         1.08107314943346       2.65750463282281      -0.42993345556215
C         3.81707378518839      -0.91019861097752      -1.45131699277113
H        -1.02928416193865      -0.61040837397782      -1.50754236787004
H        -0.68614014586670       1.11904251668265      -1.76017442759323
H         0.99168739495056      -0.83471331133057       1.56904786066991
H         0.00158036905782      -1.77963618081705       0.40843544174504
H         1.53968398372369       0.48231406484541      -1.85410126367195
H         1.07003913122047      -1.19521425455916      -1.50553357062712
H        -2.99598333504279       0.74212914935207      -0.89151564850598
H        -2.05685379473210       1.69381303668113       0.26056272157211
H        -0.98513085007720       0.35248546421027       2.39892719089902
H        -1.26713369929835      -1.37886071710033       2.46159452881377
H        -0.16324173899770       1.82920125637242       1.12668855507172
H         1.55714219559426       1.34345285084106       1.21731269177319
H        -3.26219461752590      -0.09168786194321       1.50618082777146
H        -2.63166824995731      -1.32903680651791       0.40215289791644
H         3.14149958452922       0.38038765307938       0.17006089061848
H         2.71570607853554      -1.31164128133910       0.35986144240791
H         1.34811628517343       3.52245940497126       0.19639768668125
H         1.97814594581624       2.41964008984516      -1.01834026893770
H         0.26746452633934       2.96692347890232      -1.10483703330108
H         4.79821588320132      -1.07500714862558      -0.98480364395500
H         3.52431891480599      -1.84070266828518      -1.96521273390598
H         3.93753460476763      -0.12459331250466      -2.21457308390815
C         3.51308427000013       1.20164845019441       3.20865776131323
O         4.44660290746535       1.58612943547613       3.91950999743596
O         3.17707137433062       1.48379889428985       2.01895428619475
C         2.54206400375992       0.15121763613270       3.86838743127568
F         1.21784202517970       0.57333496308070       3.83915112885136
F         2.81692222391496      -0.15270538648876       5.15743393055966
F         2.55190876406957      -1.05943549236085       3.17582276734956
