46
C12H26F6NP optimized with ADF in AMS.
N        -2.26226458171656      -0.39195639495395      -0.55574039254441
C        -2.56728106401467       0.95242310061770       0.09082702650569
C        -3.38480032338824      -1.36868074761913      -0.22202238049067
C        -0.97940523478004      -0.98463489433994       0.02831342307903
C        -3.94222145763731       1.48679537053107      -0.27997368696758
C        -4.75921641835885      -0.85756544130526      -0.61777618558782
C        -5.05036510012502       0.48777128587000       0.04487454111172
C        -2.11192352767500      -0.24471516764210      -2.03280442047716
C         0.22213132718632      -0.05832585556303       0.07163120689600
C         1.42503631189376      -0.81592737269797       0.64560759479632
C         2.66297009557989       0.07021177428694       0.77293050387896
C         3.87400757045268      -0.66739164357039       1.34099917091721
C         5.10592131443777       0.22601308015386       1.46160836263004
H        -1.77265661043158       1.64009007969074      -0.22922557019004
H        -2.48985109813074       0.78147611782113       1.17447310830930
H        -3.32902900435497      -1.51242465459239       0.86753635215495
H        -3.12759665292062      -2.31501893665380      -0.72257083338024
H        -1.23519887749268      -1.30561572992162       1.04732247905180
H        -0.77271853895760      -1.87754044444579      -0.58507247026923
H        -4.07961788351797       2.41288775810734       0.30332130016334
H        -3.98092023539455       1.78041750301517      -1.34437447780611
H        -4.86613354432834      -0.79168119366230      -1.71497895864265
H        -5.48432991410284      -1.61651167027557      -0.27816649148177
H        -5.09663954340317       0.34618927757868       1.13706205723069
H        -6.02534914732191       0.87731056572311      -0.28869345817183
H        -1.27354924314954       0.43184647427515      -2.23538682285271
H        -1.90967426454888      -1.23373230739894      -2.46335073556058
H        -3.02983017692931       0.16650093762267      -2.46334387739068
H         0.48165988244760       0.33568522852456      -0.92694374332180
H         0.01083841256197       0.79241298021754       0.73750297803088
H         1.15115892009758      -1.20868821523226       1.64075426191740
H         1.66001458560008      -1.68743696120615       0.00622750207823
H         2.42482519827419       0.93076179879513       1.42552449263798
H         2.92430641628730       0.48883019323695      -0.21799491649943
H         4.10888677057807      -1.53496564993932       0.69704542920202
H         3.61539813839241      -1.07698716407197       2.33385480374221
H         5.40219605078015       0.62719853154519       0.47862938621227
H         4.90901352246673       1.08163402049078       2.12750052707959
H         5.96261773920729      -0.33020111730386       1.87195555620850
P        -2.38378307084375      -0.81131033251741       3.84749942072800
F        -1.15541724448050      -1.38948906155478       4.75840960631564
F        -2.19084243408572      -2.09363810379096       2.77132687838370
F        -3.49009365979267      -1.67807806475345       4.68104902756911
F        -3.60374199496557      -0.22929018041955       2.83901818445438
F        -2.57851022217724       0.48569905434787       4.82414947222181
F        -1.28051410591794       0.06154014228030       2.91933072522797
