31
C9H14F6NP optimized with ForceField in AMS.
N         1.11001498195251      -0.00800674904352       0.53526473080274
C        -1.24936456691070       0.00489610244882      -0.14399887206850
C        -0.27017155732390      -0.01620587663425       1.03373029374029
C        -2.70172587117648      -0.00935316298233       0.34044864667564
C        -3.67303702910525       0.00774797816797      -0.83612031119028
C         1.73927162380128       1.18381808819954       0.29933476445923
C         1.73979902553230      -1.19147427428151       0.26141001733365
C         3.03304975768415       1.21034830828500      -0.22678494746914
C         3.03357211353828      -1.20060059555986      -0.26534122226945
C         3.68068932244327       0.00926503617059      -0.51201727282864
H        -1.06514725129699      -0.88515214842866      -0.78521375482801
H        -1.06959251616952       0.91955249583171      -0.75072562306627
H        -0.44871263761936      -0.92107792788355       1.65734705284114
H        -0.44807148937035       0.86624025840320       1.68875707286051
H        -2.88141588593166      -0.92550313244230       0.94229284702276
H        -2.89389933077273       0.87940587049115       0.98043745809132
H        -4.71655511584842       0.00094181508772      -0.45725191990534
H        -3.52225473245664       0.92306172707584      -1.44742797620735
H        -3.52072152973935      -0.88845770036667      -1.47460506248876
H         1.23688316057210       2.12168592616104       0.50564672274004
H         1.23782210604094      -2.13569062749189       0.43756826444824
H         3.52500108794767       2.15506119664988      -0.41886094435599
H         3.52594256648795      -2.13847002890830      -0.48758518008811
H         4.67993595836285       0.01614189754417      -0.92783130630332
P        -5.24361339992858      -3.30851331062802       2.81560371943373
F        -6.90793627974342      -2.93390263816147       2.61536504269353
F        -4.87214980492089      -1.67820798314922       2.42644510316140
F        -5.30700424171035      -2.86149562905611       4.47293507238162
F        -3.57453810824813      -3.67947769558547       2.98380957990954
F        -5.68338110570032      -4.91107713847085       3.25105160864067
F        -5.14033766279025      -3.75082357864265       1.15873022953311
