47
C13H25F6N2P optimized with ADF in AMS.
N         2.08499123292528       1.71435552238187      -0.13591518618046
N        -0.00186198240940       2.28967160682510       0.08263396781278
C         3.31310818923696       1.12114594302872      -0.70330855949082
C        -1.43773519925973       2.39792818291154      -0.21158780455718
C         3.32974485184827      -0.38884577927702      -0.48669042671166
C        -2.04933872926289       1.02109550588067      -0.47101664039334
C         2.18110910819857      -1.13929016781040      -1.15145275977753
C        -1.84612887650096       0.03746285129027       0.67838612194877
C         0.92614983713043       1.86282556660177      -0.79074770845002
C         1.90279556027844       2.04293397384586       1.19017088910020
C         0.59025690134686       2.40231802767928       1.32648200319632
C         2.22235341866396      -2.64105962835015      -0.86683223892486
C        -2.42546278724158      -1.34487170849608       0.37775646782229
C         1.06535087133688      -3.39826442637766      -1.51436106361331
C        -2.19867375852555      -2.33146342993862       1.52029011434555
H         4.16210915719198       1.59594628869730      -0.18988715650793
H         3.32813191500978       1.38769381320700      -1.77160215016966
H        -1.56363375038214       3.07398178386107      -1.07195667838957
H        -1.90113519345125       2.87770403755984       0.66261199033400
H         3.35719265360729      -0.57887650580478       0.59879020948815
H         4.30000594339386      -0.74532118075995      -0.87280631448031
H        -3.12707756054752       1.16520357677325      -0.66490970973932
H        -1.62025465743084       0.60032858448746      -1.39878407920050
H         2.20125477928291      -0.97177284237455      -2.24745496752195
H         1.20927168127446      -0.75190852117296      -0.78677467038677
H        -2.31097706215055       0.44151608979757       1.59837745687108
H        -0.76722820565071      -0.06847079918034       0.89519311646370
H         0.76284359697744       1.66264621869641      -1.84180979537975
H         2.72917960175996       1.97289024560537       1.89656352640607
H         0.03392015816582       2.73122355366891       2.19602457436486
H         2.20933941094529      -2.79261566676071       0.22741548593063
H         3.18522976055883      -3.04959075878360      -1.22217063148647
H        -3.50710771461672      -1.25050146376685       0.16965497279817
H        -1.96224939739221      -1.73231982504308      -0.54852281681858
H         1.08135490706909      -3.28371274336671      -2.61083809697473
H         0.09498946533551      -3.02157122444865      -1.15014111941574
H         1.10962848652211      -4.47523224045268      -1.29127717326543
H        -2.66811113830707      -1.97209357110177       2.45013499099234
H        -1.12302673011696      -2.46332541184817       1.71812493238731
H        -2.62274525735883      -3.32031033922749       1.29144548124886
P         5.57820507584610       1.16735224417905       2.58624563219392
F         5.87178027507730       0.45446032691962       1.10957049940442
F         7.03338897606302       1.90981163265608       2.53611468649170
F         4.87845260298611       2.47007160769165       1.76239921055372
F         5.20518908299272       1.89405479725137       4.01104209663861
F         4.04899105754232       0.43959255626308       2.58839573428351
F         6.19562596663732      -0.13611124921792       3.35744944385893
