43
C11H24F6NP optimized with ADF in AMS.
N        -0.68897172522159       0.54525755672379       0.09937893048511
C        -1.72604706915240       1.47950200713922      -0.51538307745378
C        -1.06684894436427      -0.88642138199445      -0.22016327386924
C         0.64555936421592       0.87425853784510      -0.55946271642368
C        -0.61116443558359       0.72116147715468       1.60622029374743
C        -3.14635956219560       1.15116296507722      -0.09851535855536
C        -2.48837755855235      -1.24857704311868       0.18744192990761
C        -3.50689471892105      -0.29457657886322      -0.43504486163110
C         1.84830967408197       0.09362902211393      -0.06142843351686
C        -0.15413309481078       2.08913624739491       2.06850026251988
C         3.09744577326549       0.55963605090131      -0.82250326080504
C         4.35981113670026      -0.16582986537914      -0.36527982571614
H        -1.60115470735501       1.38076189754027      -1.60359258498446
H        -1.43007375932866       2.50565022543804      -0.27082214686154
H        -0.32696946119493      -1.53458182930347       0.26923011017000
H        -0.94788598432402      -0.98291557398492      -1.31088650546509
H         0.78328755673242       1.95732183159833      -0.44054651272658
H         0.48623551743101       0.70537326326725      -1.63441251892420
H        -1.61251333670544       0.49951478488947       1.99325616350562
H         0.06533720176769      -0.06908236425810       1.96394659795434
H        -3.79639461174634       1.86099588147066      -0.63660410650863
H        -3.30314528520818       1.35186025331415       0.97544478282344
H        -2.58722227061468      -1.25926134280255       1.28628215453744
H        -2.66365286445454      -2.28665874403087      -0.14179018406224
H        -4.52348996549070      -0.53962657667520      -0.08952311723732
H        -3.50083371266379      -0.42264622113638      -1.53264490421809
H         1.72436363794010      -0.99328698140055      -0.21529271611373
H         2.01464435321815       0.25878416661606       1.01741335124577
H        -0.16923502118092       2.09244249642008       3.16951155210698
H         0.86703074970705       2.32909648844117       1.74427591028670
H        -0.80959903184893       2.89783802469646       1.71881119930564
H         3.21303576340745       1.64915994277872      -0.68874802897154
H         2.94201467477688       0.39948020970215      -1.90386011400374
H         4.27362002005730      -1.25373222962870      -0.51972392329307
H         4.55329428308538       0.00924966646139       0.70529599973554
H         5.24020093803715       0.18329536012814      -0.92542856983706
P        -0.06253399216675       4.63190913208595      -1.88766398533470
F        -1.68747176530730       4.41642946992078      -1.58011458323093
F        -0.11787790621408       6.12318142605671      -1.21663639549480
F         0.25434908332837       3.97408189296967      -0.35027801864032
F         1.55857018487533       4.75516580622430      -2.13115658328775
F        -0.01735039021191       3.07442869142015      -2.51440595168436
F        -0.39154759981009       5.22671376208618      -3.37336987988012
