50
C14H30BF4N optimized with ForceField in AMS.
N        -0.07371736810760       1.47817534118511      -0.00397567782780
C         0.51491064168940       2.41380731863316       1.00401188754453
C        -0.74294758089719       2.36236395599278      -1.00697627773497
C         1.01315414428537       0.69480315083130      -0.67772767337888
C        -1.08469990380368       0.59760238509129       0.66730985597303
C         0.00170506492216       3.81230993355073       0.71773046169656
C        -0.29913618639556       3.78978430570446      -0.75369370351500
C         1.76309868936712      -0.29560267087627       0.24630146645991
C        -1.77132227082249      -0.42879810468063      -0.26578848744328
C         2.98175746876858      -0.88977059687054      -0.47217282686466
C        -2.87490562632731      -1.18415950338648       0.48651636730168
C         3.71887868487725      -1.89633336542737       0.41832689621901
C        -3.58802885699857      -2.18797879159753      -0.42591722756044
C         4.92577371701602      -2.48856107587439      -0.30512327568931
C        -4.65914866506211      -2.95989905672723       0.34062274636813
H         1.62644798764832       2.45781769468450       0.94301197375906
H         0.27151228440675       2.13651364389510       2.05422536811266
H        -1.85242908976809       2.34854597608747      -0.90604373701306
H        -0.52167832349527       2.08022211239952      -2.06179920371584
H         1.75652927670226       1.39863486469173      -1.12036380799892
H         0.60585161608143       0.12227995255231      -1.53997299333271
H        -1.87567138192704       1.23101793154460       1.13319737381256
H        -0.61935118206164       0.04460255687303       1.51298622866619
H         0.75477617430787       4.59107143721663       0.96865272511007
H        -0.93277968967644       3.99721078080321       1.29282164551819
H        -1.09050414620549       4.52425838486115      -1.01983302038828
H         0.62506591737036       4.00787427411134      -1.33352735246417
H         1.08927922128555      -1.12952777976948       0.53396959868618
H         2.10371553456481       0.21153638027497       1.17313983698092
H        -1.03186964843082      -1.17129076263340      -0.63072218399389
H        -2.21791349613591       0.08010853042115      -1.14533232784001
H         3.67911413472863      -0.06992582639907      -0.75199855536496
H         2.64538665011566      -1.39999920196781      -1.40135234860068
H        -3.61898530408668      -0.45668249792700       0.87878844585376
H        -2.42337054947203      -1.72548510505694       1.34673099362091
H         3.03055775869360      -2.72180181962689       0.70235390815404
H         4.06747429877325      -1.39242075695710       1.34592896548827
H        -2.85187530432043      -2.91071590307696      -0.83998669077623
H        -4.06862066897472      -1.64963065331463      -1.27157734172179
H         5.43670116683642      -3.21874480153315       0.35720190129501
H         4.60251578132849      -3.01392599212293      -1.22901969462267
H         5.64684816084045      -1.68718028505091      -0.57270919119296
H        -5.16418359040221      -3.67552817437607      -0.34171275258683
H        -4.19961970942587      -3.53040232228059       1.17576796979834
H        -5.42028469642539      -2.26176275902914       0.74945659060185
B         0.96925832323264       2.43447705444064       5.18103826262969
F         0.14213232387781       1.34936251236491       5.57533805368078
F         1.88671843150422       1.99468086093227       4.19020199256100
F         1.68663208438483       2.91671118176355       6.30792531650813
F         0.16236154431328       3.47683536775559       4.65185181262690
