34
C10H21NO2 optimized with ForceField in AMS.
N         0.43071830770102       0.23973293188256       0.04608098408940
C        -0.52516702579898       1.28633760237481      -0.43836106427604
C        -0.08046832622286      -1.12572218381012      -0.28691335214923
C        -1.98357177382419       1.07195454916617       0.00851786620973
C        -1.52036183807788      -1.37749552690566       0.19267792539568
C         1.72811798661782       0.48297139938439      -0.66718938488754
C        -2.46662078121073      -0.32363236409697      -0.36916236271872
C         0.63996402274848       0.38438051771653       1.51257074949634
C         2.88813858138291      -0.45484802574093      -0.28459762421499
H        -0.53322112480760       1.31494900233179      -1.55198012865018
H        -0.20220189893210       2.29748069564890      -0.10019645720597
H         0.55633250838804      -1.91195280765946       0.17279446125517
H        -0.05441518055786      -1.28897103159292      -1.38908603468794
H        -2.62817658596280       1.82295736817560      -0.49743206081340
H        -2.09896283681240       1.23691802833658       1.09977629795107
H        -1.56946761207563      -1.38280586628929       1.30242483415343
H        -1.84856108765055      -2.38084474683774      -0.15492009693632
H         1.58578563380212       0.39029946914499      -1.76771447941613
H         2.07541945545898       1.52670913809384      -0.48690131726084
H        -3.48911739067032      -0.48651581379649       0.03436224890045
H        -2.51343166553050      -0.41644776393276      -1.47681118884699
H        -0.31259313221538       0.38454438388900       2.07675790062148
H         1.23738708663930      -0.45743281362496       1.92327346260212
H         1.16462722036189       1.33658618740449       1.75011842355005
H         3.77504303539914      -0.19338083085462      -0.89966144111977
H         3.18051997347087      -0.33103694697608       0.77754841829214
H         2.64755476759949      -1.51569603939549      -0.49465488036296
C         1.09786050053830      -0.28915454717210      -5.30130204545420
C         0.23541729534975       0.62834895838459      -4.49345082171342
O         0.68483220772345       1.68930269495141      -4.09185247405890
O        -0.91708593142784       0.32152857047995      -4.23448906841747
H         1.43882204612014       0.23348020487086      -6.21993840478109
H         1.98303523827369      -0.59141707015022      -4.70285744111228
H         0.53423767150224      -1.20053103270068      -5.59565156293267
