34
C10H22ClN optimized with ADF in AMS.
N        -1.43517768804618       0.22760653249235       0.07356121989301
C        -1.77774829562070      -1.16698210086813      -0.43061252087065
C        -2.49779667965082       0.47604485329092       1.11900289986180
C        -0.05916236242101       0.28290070425799       0.69283177542607
C        -3.29849925002379      -1.15516149971733      -0.52188624010140
C        -3.78134077013593      -0.11818589777131       0.52972411897316
C        -1.55741088539999       1.23356200725729      -1.04053424418404
C         1.08063905444782       0.00698927340199      -0.26854513981157
C         2.41029639210136      -0.04359585332824       0.48429525165663
C         3.58193331961747      -0.34602731531909      -0.44963400189565
C         4.92238735039808      -0.39137219476613       0.27700134434197
H        -1.41390767451600      -1.86090188763843       0.34370642033613
H        -1.26237898622172      -1.31955639185334      -1.41350312973852
H        -2.54091236238824       1.55188806647661       1.34079764488219
H        -2.18109353205958      -0.06880269062641       2.02126936650899
H        -0.07095080858580      -0.46104345950519       1.50770408605405
H         0.03106352201457       1.28531462007115       1.14618697232640
H        -3.70294430530696      -2.15927189140020      -0.33502326751396
H        -3.60413640877221      -0.86282145264232      -1.53821019009635
H        -4.40396150062864       0.66066823914672       0.06525891527352
H        -4.38080255934318      -0.57787047322908       1.32854147118193
H        -1.02137385550189       0.82570469825611      -1.93107490687282
H        -2.62087104180778       1.35155750080696      -1.28228278225602
H        -1.14836904494217       2.18642310212783      -0.67691957212279
H         0.90807057854834      -0.93414079142702      -0.81717988122931
H         1.12314135100836       0.77839946151765      -1.05427069547245
H         2.36566819015881      -0.81869723453564       1.27420274575907
H         2.59173494097168       0.91955182634560       1.00055479077367
H         3.61163866147205       0.41667859640799      -1.24816702455876
H         3.39384818772531      -1.30822250642061      -0.95796865720772
H         5.14343459756972       0.57345944345511       0.76235762972826
H         5.74494743168465      -0.61376283218302      -0.41887587977503
H         4.92426993267762      -1.16813180069696       1.05958896568985
Cl       -0.35470276222324      -0.78941846258383      -3.31344368175963
