61
C17H29F6N3O4S2 optimized with ForceField in AMS.
N         3.06339274304951       0.94005191361577       0.00188069792209
N         2.92079118645018      -1.27357926202907       0.17678331011670
C         1.44668912301219       2.78871818418241      -0.25249839221778
C         2.81694383431992       2.35222415978304       0.28720128580077
C         1.02069899736948      -2.62139072507089       1.00844899956585
C         2.52184291231249      -2.58743930945686       0.68001308381212
C         0.29094616685188       2.10475157752709       0.49404684033647
C         0.15178214343577      -2.30488215700264      -0.21959405790210
C        -1.06930138720865       2.54517614139414      -0.05636301123101
C        -1.33843517281402      -2.29899966025204       0.14076028811557
C         2.81987582629426      -0.09713969524031       0.82695138443891
C         3.34320954017673       0.40148491730972      -1.20226491385442
C         3.26218995061276      -0.97147010837664      -1.09202663823353
C        -2.21027325371637       1.86382847680455       0.70936527051138
C        -2.18510480697015      -1.80662883896166      -1.04026418864958
C        -3.56475729518942       2.17467907006578       0.08188006159153
C        -3.66567819465360      -1.74779328312829      -0.67707920476010
H         1.35596562135304       3.89046397618765      -0.13548278738981
H         1.38655180989553       2.55448108218532      -1.33801533293821
H         0.80760348188183      -1.88878043256131       1.81729309678882
H         0.76313107813338      -3.63296523677617       1.39068094823869
H         3.61063297665993       2.96565722955823      -0.19121544888626
H         2.86760066410740       2.53529585861167       1.38335231676299
H         3.10493360095519      -2.81857123573386       1.59722647259961
H         2.75119358116938      -3.37183248577737      -0.07457311693601
H         0.35129922429835       2.35430214404511       1.57625321255908
H         0.37330887189236       1.00318840090678       0.38102836351114
H         0.33815157449388      -3.06256449246863      -1.01226217426527
H         0.42526092337180      -1.30548596785628      -0.62076331161509
H        -1.17075236678440       3.64879327159839       0.03887805260646
H        -1.13043209546997       2.27446105837911      -1.13386963658383
H        -1.50410908929733      -1.62930938809195       1.01302457903234
H        -1.65239143394216      -3.32809005015600       0.42300061534957
H         2.48770165785917       0.00618013975600       1.85258794048727
H         3.52821360046960       0.96529896375592      -2.10717166904564
H         3.36899503076488      -1.68967338725776      -1.89455731100539
H        -2.06257195423650       0.76355254186849       0.70641074539804
H        -2.21184816851785       2.21176638982270       1.76537636062079
H        -2.05275768277472      -2.48945598446231      -1.90769104023606
H        -1.85386295893120      -0.78846980793925      -1.34144915075191
H        -3.75476654772241       3.26895755109729       0.09617349905210
H        -3.59678691420750       1.80702978871102      -0.96615616604005
H        -4.36494474573850       1.66550411025908       0.65948535957898
H        -4.24287178884599      -1.35966843603146      -1.54281538640347
H        -3.82648628436414      -1.06890992723306       0.18730376046409
H        -4.04170611616178      -2.76157904178763      -0.42312806629318
N         6.25949976348650       2.28947127223955       4.32631435634379
S         6.55227666493699       3.63147472705999       3.43290811071223
S         7.44726277241060       1.46114126764127       5.09369277688615
C         6.90678362071394       3.15710411167090       1.75280395687856
C         7.51045403982730       1.96866239729059       6.79956011845136
O         5.33122214629874       4.50645224051330       3.44388565686301
O         7.72183584296096       4.39197660480149       3.99453764629203
O         8.77981796378138       1.71944621855467       4.44646650371577
O         7.13739088915126      -0.00757759044198       5.03697508670162
F         7.02578905336372       4.28930870507489       0.96961014330127
F         5.87937624481764       2.37104318425367       1.26871570281552
F         8.08820548986012       2.44257170240340       1.70518599187955
F         8.51184850373309       1.27322093325157       7.44982937546802
F         6.29852969432764       1.70113732753957       7.40728634802496
F         7.77097455208589       3.32358133357329       6.87527706494350
