31
C11H18ClN optimized with DFTB in AMS.
N         2.52288515575176      -0.08940268099068      -0.46634368648823
C        -1.25608176162826       0.18715843921568      -0.55564656434509
C         0.12514680170169      -0.12815509914749       0.02255219117641
C        -2.33831425123573       0.06002675776150       0.51971097825585
C         1.18953678575137      -0.00299609611308      -1.07264256224092
C        -3.71937659471585       0.40133393982437      -0.04822778731055
C        -4.80549572579634       0.28039079898351       1.01939385754666
C         3.17422622488414      -1.26293422222575      -0.44696570674481
C         3.03790652099676       1.00801526422112       0.10851396100196
C         4.40464818466633      -1.36844577699867       0.16478232457815
C         4.26963719470874       0.94867411192981       0.73126381259546
C         4.96772483307135      -0.24843563220152       0.76681617485257
H        -1.47474682189176      -0.49376320853561      -1.38574000543659
H        -1.24605887485061       1.20978993689001      -0.94437482553577
H         0.35513467223685       0.58863158327869       0.81488394838677
H         0.15294235093087      -1.13778197666749       0.44611725658240
H        -2.34594919708232      -0.96191744345782       0.91644543152627
H        -2.10684497355692       0.73865295417096       1.34714074069985
H         1.10308361759147       0.97897238164409      -1.54794463055000
H         1.09234658062822      -0.79691131260047      -1.81655574611478
H        -3.70699780121181       1.42333092079215      -0.44016880215501
H        -3.94922406058325      -0.27374929752380      -0.87994942213028
H        -4.60480678656601       0.96214640201504       1.84695887289047
H        -5.77802464835959       0.52840927807059       0.59339141960286
H        -4.84697013842602      -0.73741692907417       1.41084032721294
H         2.69383795849456      -2.10441792796470      -0.93188761963516
H         2.42481006018151       1.92279668372237       0.03211568060139
H         4.91625567406011      -2.32253758968582       0.16812185292986
H         4.67296304112545       1.84489911331439       1.18475520848074
H         5.93398728085831      -0.31465329219313       1.25225011079646
Cl        0.85127333366498       3.07957519544590      -0.50063933872989
