53
C15H17F18N2P optimized with ForceField in AMS.
N        -0.02043226154752      -1.32535833728865       0.34271978785735
N        -2.04766418761515      -0.41871771491605       0.23696338962668
C         1.33452513243114      -1.62881769336018       0.79987830217815
C         2.37794189728140      -0.86279448145258      -0.02425322106140
C         2.21647397391995       0.65762944916227       0.12045309829706
C        -0.93852193571172      -0.57680844097365       0.98453296528475
C        -0.56989352057010      -1.65840498262630      -0.84290462099839
C        -1.82730855289858      -1.09382475119262      -0.90932443403713
C        -3.21000669524580       0.40402768093682       0.56009302425522
C         3.30934866319554       1.40438280166092      -0.63717314388644
C        -3.17377079152954       1.70263390441048      -0.23726854590643
H         1.44451421143917      -1.36214905209911       1.87423885902941
H         1.51641646194163      -2.72126077051597       0.70534447654621
H         2.28927560217669      -1.15024390339239      -1.09472959385326
H         3.38972633265408      -1.16084356008553       0.32781236555687
H         1.22967862295802       0.97321655535362      -0.28250817582765
H         2.26445557126912       0.94068413987976       1.19450326189456
H        -0.78356598669598      -0.11757744609962       1.95314521310243
H        -0.08269108478819      -2.24438679907941      -1.61150972646012
H        -4.14109488367570      -0.15678555353044       0.32926628268454
H        -3.21281828266997       0.64779437830300       1.64500649977977
H        -2.51869484682397      -1.15067987368605      -1.74012640407910
H         3.27415085666967       1.14755585621414      -1.71724093453367
H         4.30881540785265       1.14362162541825      -0.22893835379988
H         3.15512784933650       2.49852325079705      -0.52730084768080
H        -2.24480934275891       2.26373545096254      -0.00053930215474
H        -4.04980289146507       2.33092501049286       0.02763903230716
H        -3.20224665329191       1.48780477825245      -1.32655178661412
P        -1.84475028438480       6.01844215050115      -5.39916661369314
F        -2.06037376760824       4.31378543585196      -5.50931019464972
F        -3.35325353767576       6.84623294612310      -5.30239825382559
F        -0.24484435948716       5.41753155699091      -5.19998272412160
C        -2.42888763251976       5.60293737443967      -3.59764969054900
C        -2.28389643829108       5.65504469406132      -7.24884859479140
C        -0.79534567872547       7.63903517598555      -5.50993300389511
C        -1.58851551580953       4.58152780024201      -2.78422162239888
C        -2.49850435554465       6.87137224656899      -8.17471761245967
C        -0.20195113110539       8.18591186886965      -4.19528291025660
F        -3.71858694582650       5.08686081760802      -3.64789777768059
F        -2.49556546572093       6.76588172498457      -2.85750374129976
F        -3.46505252009274       4.92105339647188      -7.31237407358703
F        -1.26902445817132       4.89161944186937      -7.80826052934556
F        -1.59522669581653       8.64981338532312      -6.01252209397039
F         0.25079687800831       7.46049357416771      -6.40520545131666
F        -2.04752762894244       4.57298010793707      -1.47926574389762
F        -0.24850308294987       4.90293064338099      -2.75353722832661
F        -1.73043724982537       3.29901023336820      -3.28394077534166
F        -2.95302664773190       6.41909755701517      -9.40160512072191
F        -3.45027804784714       7.73576513504732      -7.66678131622233
F        -1.31931700791280       7.55322426137132      -8.39980927663470
F        -1.18275111042877       8.78357092167160      -3.42620584804637
F         0.73521016208073       9.15861716857281      -4.49808478708082
F         0.43134011989168       7.20729745503091      -3.46220979899429
