56
C16H34BF4N optimized with DFTB in AMS.
N         0.09230283785515       1.87018731668068      -0.03413487099966
C        -0.63679337837578       2.93293475917740      -0.79398756660226
C         0.98081067617343       2.65512103497375       0.88540475974252
C        -0.85604857717574       1.02398437813746       0.76284707145518
C         0.92109894627601       1.05297957111763      -0.98868163685761
C         0.38499303550840       4.04374232412946      -1.02692494208694
C         1.44103151308691       3.86143450023679       0.07524618787993
C        -1.86093657880872       0.24912666802854      -0.08162258007729
C         1.66863067615541      -0.10764443922478      -0.32311295368720
C        -2.74476454734661      -0.58607048629294       0.85356883315540
C         3.13061228963619      -0.17565773690460      -0.77845504923670
C        -3.74638478783131      -1.42963079735410       0.06060123893443
C         3.90583372697118      -1.16258492194996       0.10055437406522
C        -4.62524715941097      -2.26609274108132       0.99602556412812
C         5.38096863292611      -1.23069599093384      -0.30379463612733
C        -5.62560748227363      -3.11298764438810       0.21135102682880
C         6.15322101397275      -2.20292819880862       0.58659351459799
H        -1.04324564143646       2.51953801223694      -1.71702853321401
H        -1.45634486538706       3.28365453073082      -0.16269711998586
H         0.37999000737132       2.95700792560115       1.74479695492511
H         1.79655934083464       2.02637248933686       1.23991409178060
H        -0.25835022726968       0.33371998020192       1.35924372853211
H        -1.37408466182492       1.69569818068178       1.45093561749915
H         0.24799643560073       0.68917810570858      -1.76842208661142
H         1.62507344093541       1.74726127031171      -1.45349889195451
H         0.83594001440471       3.95383065574157      -2.01746211579656
H        -0.10103164742932       5.01877273036201      -0.96354821644151
H         1.50466645077064       4.74068075868078       0.71812090440153
H         2.42740600294129       3.68977999016447      -0.36058157963524
H        -2.48541214620005       0.92925797632807      -0.66972768612226
H        -1.34347676766998      -0.42096798873015      -0.77381166565190
H         1.66444500464520      -0.00049710012609       0.76113074019610
H         1.16268923479605      -1.04820342916507      -0.55619997306052
H        -2.10841305718368      -1.24027109756231       1.45745817869966
H        -3.28278983077608       0.08030510660162       1.53553405065600
H         3.58437934587251       0.81817158464029      -0.68940763915954
H         3.18584060297536      -0.47695434623504      -1.83044970991584
H        -4.37891640737127      -0.77209856576217      -0.54653090151279
H        -3.20383520347015      -2.09324844034061      -0.62169295807400
H         3.82502194860022      -0.84428103381589       1.14483782084247
H         3.45465189531055      -2.15667661256510       0.01634428537083
H        -5.16631766379808      -1.60116338670817       1.67753326662161
H        -3.98992409837765      -2.92057814205645       1.60156664720521
H         5.46151504334329      -1.55002779792222      -1.34920834136324
H         5.82669578113715      -0.23306749319546      -0.22438868252948
H        -6.28188698327265      -2.47681892354115      -0.38448151992468
H        -6.23837560994860      -3.69814794732776       0.89725957436575
H        -5.10422503829126      -3.79771423163290      -0.45906297906696
H         5.73910666766634      -3.20870678318519       0.50288719761604
H         7.20180157909671      -2.23266174496323       0.28884141842366
H         6.09604151810776      -1.89045895237090       1.62980606834482
B         1.34546568451883       0.28732554073815       3.30994729620208
F         1.65439532362266      -0.06625944219944       4.58885284605853
F         0.41570710369037       1.36192401793403       3.27012842883993
F         0.76611784823640      -0.78534907225387       2.58778972135931
F         2.49525528578992       0.70374466401497       2.58652932826721
