57
C15H28F6N2O4S2 optimized with ADF in AMS.
N         1.03295059962090       0.94659430739326      -0.05656374100398
C         0.37051149049721       1.38603825395505      -1.35389029213283
C         1.06748532469097       2.12392894171168       0.90888403404426
C         2.46469734430122       0.56987467631315      -0.42047912127294
C         0.29959326028265      -0.19936848958288       0.60326181332364
C        -0.99615193852871       2.01473232496950      -1.15217601119565
C        -0.28232417778970       2.78856712108753       1.11344543063826
C        -0.89704476268564       3.21819741122007      -0.21585593609893
C         3.34950555477398       0.12941346292918       0.72805784610244
C         0.24982490662003      -1.50373595896077      -0.17341351228822
C         4.76706000021549      -0.11210643129152       0.19685655334488
C        -0.57027091437398      -2.54251673723518       0.59935030258968
C         5.73520023093525      -0.49530765814417       1.31107527324748
C        -0.64364588438807      -3.88220796732952      -0.12801741285684
H         0.33862148176225       0.50229497275810      -2.00582907965579
H         1.06168824269533       2.12224822032543      -1.79536749805445
H         1.79245338188587       2.82912020860487       0.48300427315759
H         1.48385382455742       1.74578921190869       1.85094462018526
H         2.88899593176155       1.47406396987770      -0.88241060623916
H         2.38507671075125      -0.21176176988042      -1.19138591119422
H        -0.71824217841436       0.15744843491421       0.80718654619172
H         0.79567732688123      -0.35230137232511       1.57334195147532
H        -1.72621579829001       1.27844655250677      -0.77057682535654
H        -1.35462454806947       2.32253917867553      -2.14839612985652
H        -0.09622927002840       3.66536159781529       1.75445151925423
H        -0.97377473601411       2.13243870218212       1.67061601134431
H        -0.25383388386131       3.98900093236965      -0.67658015626602
H        -1.88888411615445       3.66871690673798      -0.05500553069884
H         2.97284156506524      -0.79182893757545       1.20806463898199
H         3.41611366035881       0.92294005078871       1.48945201918304
H         1.26618065014081      -1.89833416990074      -0.33673204159019
H        -0.20931655400714      -1.35455247903167      -1.16531640543753
H         5.11442326372570       0.81740641257945      -0.28573205359220
H         4.74364747875399      -0.89766541746402      -0.58153052330122
H        -1.59061302891633      -2.15159938355437       0.76377184910559
H        -0.12504454400257      -2.68632804895149       1.60034924666575
H         5.40751432752842      -1.41084269570810       1.83049293736882
H         5.80389978418578       0.32081694647723       2.04661836898949
H         6.74407435541987      -0.67587802571254       0.91156878848147
H         0.36144490533958      -4.31004037863407      -0.27096003668995
H        -1.10555514569202      -3.76740931536553      -1.12167303895224
H        -1.24157831592817      -4.61097197023479       0.43863755178031
N         3.75710340356926       3.64779318499220      -0.18292853278616
S         3.03833981067431       4.57328983193643      -1.28463462350895
S         4.64704442342859       4.12809162460925       1.07307167950004
C         4.34475193373678       5.64655100542950      -2.15125790604737
C         3.52902725409557       5.06771675236035       2.28464021648122
O         2.58676460820015       3.64541715458285      -2.32859698443501
O         2.07667174189110       5.52582453118738      -0.73449609993992
O         5.68711049600324       5.09157728217505       0.74827031728587
O         4.95875276479243       2.90988451805549       1.81690107990478
F         3.82682264017730       6.06684972480529      -3.33137200668951
F         5.46289302406349       4.93120283687815      -2.39668211034054
F         4.65342302494970       6.72621942335765      -1.41082286396605
F         4.19591099130214       5.20809234015420       3.45425587456600
F         2.38375853168996       4.36406237634863       2.53534511130237
F         3.18714910301963       6.28900527510877       1.83638889435195
