54
C14H26F6N2O4S2 optimized with ADF in AMS.
N        -2.02829189313987       0.95486049329317      -0.01261503051177
C        -2.67986763139686      -0.23284309261572      -0.69568841512959
C        -3.07895776055804       1.33368846782346       1.02108454306916
C        -0.74909530104712       0.54549226691257       0.68489981248336
C        -3.35121980436577      -1.02884797788620       0.41852370985853
C        -3.62709281942958       0.00347588833872       1.54247397836684
C        -1.80969146161926       2.07096413704714      -1.01398835358968
C         0.41387131583568       0.22718558351728      -0.24100054824018
C        -1.25890188820245       3.34221797848946      -0.40697875166377
C         1.60251307519848      -0.33452157039262       0.54236802457236
C         2.80412481845340      -0.62391502809422      -0.35591241896570
C         3.99870771555095      -1.20181141629948       0.39971326468111
C         5.18789473024846      -1.48836298083763      -0.51364087759833
H        -1.93010089174341      -0.77701601110304      -1.28189923354914
H        -3.44164189765120       0.18195987482956      -1.36496629759567
H        -3.84797284063588       1.89627357779639       0.47290659618076
H        -2.61779131262817       1.97309969845880       1.78360305188555
H        -1.00367324948641      -0.32978180726447       1.30087996957235
H        -0.48608333143340       1.36819142677791       1.36630974891215
H        -2.71560960334714      -1.85186178919910       0.77888171510871
H        -4.27990077015756      -1.46387274361026       0.02308624957167
H        -4.70254466844016       0.10926211538029       1.74181508851672
H        -3.14253980387675      -0.29425543808871       2.48446468474556
H        -1.15480219320475       1.66150164265066      -1.79663309931474
H        -2.79996518674342       2.24795699212433      -1.45375633535621
H         0.11301016786630      -0.50834335823763      -1.00618982740091
H         0.73646883108031       1.13525509156600      -0.77581779939272
H        -1.16296474290139       4.08240767563511      -1.21499827291724
H        -1.95852113283303       3.76973652559064       0.32467770243096
H        -0.26579927837238       3.21147058440783       0.04829000914868
H         1.29878132684806      -1.26348000731582       1.05902908364190
H         1.89894812108632       0.38178930122158       1.33110622965482
H         3.11201903764761       0.30816893485560      -0.86587430151658
H         2.50273109111486      -1.32903324679566      -1.15360440193171
H         4.30212338963365      -0.49626346556406       1.19494642330579
H         3.68992504124246      -2.13233526700295       0.91013723527608
H         5.53308401287736      -0.56806142153132      -1.01181705521483
H         6.03555740748768      -1.90518697538562       0.04979932393515
H         4.91597417301985      -2.21175014864298      -1.29937931585517
N        -5.16393449119541       2.03674881124795      -1.49049500405983
S        -5.31714634098985       3.65209087568025      -1.53489439268734
S        -5.85976871680659       1.01886374226226      -2.53396832907498
C        -7.10898411555359       4.06854727259683      -1.05765272451871
C        -4.84323926751419       1.10042876036407      -4.13434764182856
O        -4.52995579025062       4.12500895845599      -0.39303024891961
O        -5.13223927645736       4.25663742547455      -2.84752775892130
O        -7.21546950276393       1.35262026112138      -2.94003994590573
O        -5.53835094254363      -0.32207399596827      -2.03947138722624
F        -7.12252906964552       5.33180368032206      -0.56451246015600
F        -7.56059251735272       3.22463037094190      -0.09977135350406
F        -7.93121894142034       4.01475707869058      -2.11828164163394
F        -5.17932719765037       2.14576034135605      -4.90539876697698
F        -5.04760454992916      -0.04151549758864      -4.83443322960787
F        -3.50698751850415       1.18135954179404      -3.84851271675318
