40
C10H22F6NP optimized with DFTB in AMS.
N        -0.37048209874969       0.16995072425249      -0.22886856913157
C        -1.51076914163485       0.57811919047460      -1.12264333486701
C        -0.62893861623361      -1.21815003809283       0.27712803893280
C         0.86496734214096       0.15037581585095      -1.09490981091216
C        -2.87004254064641       0.47898950142305      -0.45149287281555
C        -1.98027336961262      -1.36998235725557       0.96991237520314
C        -0.21046119245320       1.11129586885926       0.93268222552741
C        -3.12300748872814      -0.94051441172641       0.05088823820960
C         2.16484211721982      -0.21676798804529      -0.38607991113395
C         0.13706940892983       2.54408723219205       0.55645774248971
C         3.30364281485148      -0.16289104046538      -1.40610706092077
H        -1.47540911292800      -0.07997166891363      -1.99298112762722
H        -1.32029013482321       1.59496047553382      -1.45914561378018
H         0.17624163797265      -1.48009909041008       0.96640044130558
H        -0.58249884211440      -1.88187001124262      -0.59053307445421
H         0.95255840368126       1.13950091921322      -1.54297029363725
H         0.66634349027265      -0.56074972262807      -1.89954807967306
H        -3.61697378257036       0.74790782648722      -1.20253029788033
H        -2.95650625788621       1.19372689419529       0.37151530776927
H        -2.00371596439006      -0.79071311740031       1.89704988701181
H        -2.09036042272663      -2.42451046617406       1.23668749657297
H        -1.14974199682877       1.10210495091164       1.48822661313827
H         0.56605572659578       0.69182539398892       1.57708716047211
H        -4.06886087787150      -0.98462182273185       0.59564901395259
H        -3.18562183563781      -1.62610173697752      -0.79992440167367
H         2.37915112834300       0.48607154904097       0.42324984725583
H         2.10949649411668      -1.22253128818112       0.04090084465270
H         0.22321171022408       3.11195900581590       1.48283602056670
H         1.08210073138257       2.60920224448198       0.02309886914289
H        -0.63630003883462       2.99982083447243      -0.05699465294990
H         4.24666190870975      -0.40796579517605      -0.91878472699982
H         3.12901321263625      -0.87684187835556      -2.21105346219736
H         3.37996320426085       0.83510982576470      -1.83723126258768
P        -0.28418646270538       2.59526906075579      -3.90401913182040
F        -1.84665153229919       2.51162238644796      -3.34401169230077
F        -0.43052897196425       4.19655389387052      -4.13367695280041
F         0.20751820058945       2.87995638668075      -2.30318602167000
F         1.28441544697828       2.62061789591994      -4.35932291605948
F        -0.13909726995743       0.94476376568616      -3.58603766189641
F        -0.77855921360896       2.26352489975673      -5.41387018191426
