27
C7H13BF4N2 optimized with ADF in AMS.
N         0.59422209172104       0.85061108119943      -0.15622630664779
N        -1.53708551325729       0.57425632151913       0.12571375009804
C        -0.50588724672289       0.28962899730407      -0.67534486571517
C         1.91398552365523       0.83341087427019      -0.80397339269102
C        -2.93642527697617       0.23050472991461      -0.16539160604228
C         0.25076412190797       1.52048915931107       0.99928990756390
C        -1.09179778842420       1.34807368722019       1.17543778261481
C         2.56951545979643      -0.53577385504323      -0.72633309206689
C        -3.51140369980763      -0.71009880860692       0.87913598607859
H        -0.59633595702519      -0.18963112402107      -1.64690320577631
H         1.74305655568486       1.16137862852271      -1.84113709149564
H         2.51812609271350       1.59642491595985      -0.29309275960012
H        -3.48171438591837       1.18307845755548      -0.23277688234135
H        -2.93681978026113      -0.20040830574940      -1.17617506007034
H         0.97835246131673       2.07573231893324       1.57751212351080
H        -1.76127068522958       1.73110381066420       1.93456102340682
H         2.70215809942305      -0.85779738943340       0.31738051371562
H         3.55753425875464      -0.49225135653328      -1.20751333566515
H         1.97148065234640      -1.29093318569552      -1.25707075641360
H        -2.93387200377584      -1.64480469984090       0.93005651845410
H        -4.54831910576748      -0.95729769127774       0.60910657038629
H        -3.52422441059171      -0.25180128140390       1.87968486933666
B        -1.47056721366573       1.76280872285897      -3.18100852125013
F        -1.86646885649835       0.36262625807960      -3.14980667837021
F        -1.86351123780053       2.35338030683465      -4.37701458856484
F        -0.03868488436440       1.79365036715263      -3.03028201173790
F        -2.05692851353335       2.40733825860534      -2.05229668441692
