55
C15H20F18NP optimized with DFTB in AMS.
N         1.46074768138768      -0.65029548546717      -0.42959022699635
C         1.72330678780588      -1.01359171030415      -1.86629681494960
C         0.07801910131390      -1.10931088750979      -0.06639891719980
C         0.68651145463967      -0.45527176029742      -2.82819196137365
C        -1.00524381075227      -0.57415020702331      -0.99799851007572
C         1.57789227385251       0.83200840870448      -0.19511508818284
C         2.45761195110085      -1.41657747728591       0.40702407218163
C        -0.71212488929843      -0.93757269528851      -2.45269474565140
C         2.95179268497481       1.42311341378598      -0.47114373811847
C         2.41873577713480      -1.12317522625709       1.89742017041503
H         1.72774669757987      -2.10404076645779      -1.91816020209898
H         2.71605395035761      -0.65311754636311      -2.12561718844674
H        -0.12092057048466      -0.79278091751430       0.95922510131545
H         0.08993432456687      -2.20203878200199      -0.10379183584618
H         0.95109220345795      -0.81278678875907      -3.82638418141412
H         0.71934544021404       0.63729087839524      -2.84875360873762
H        -1.10274575997708       0.50959449930257      -0.89161324058460
H        -1.95135318619562      -1.02311635569499      -0.68398458297546
H         0.83940682328277       1.31902667841635      -0.83388551718634
H         1.29246884441450       1.00799742492088       0.84478146669684
H         2.26121958169041      -2.47605972245911       0.23026775402826
H         3.44792011650784      -1.18687462171660       0.01749501483189
H        -1.45690616273964      -0.47546797640910      -3.10441341643108
H        -0.77337011230956      -2.02303876089782      -2.57887228517029
H         2.89623307577039       2.48933973370408      -0.25162709390044
H         3.72180651906919       0.98340274311523       0.15781070623261
H         3.24098999835921       1.30331476304981      -1.51237346257084
H         3.13631167394697      -1.79401809485059       2.36994289151991
H         2.72294714813479      -0.10163997108521       2.11801355846633
H         1.43735322143386      -1.30674076226002       2.33196298282086
P         5.95376262958352      -1.51555544860406      -2.29057593720261
F         6.51974410779807      -0.09372016957568      -2.95623654081686
F         4.69913965644021      -0.61321025434815      -1.51952119074741
F         7.14072097726302      -2.44911099202809      -2.99924324423158
C         4.86194645793117      -1.61426897302245      -3.93046791189120
C         7.17698258026830      -1.14248785693214      -0.79958480906761
C         5.10661671486222      -3.11775845482097      -1.39605447846603
C         5.59931606552232      -1.68792607184892      -5.29831822678788
C         6.69562306728066      -0.16218584502662       0.30586612411443
C         5.57668833098874      -4.55210467676566      -1.74024170805310
F         4.07819408793309      -0.51109485570790      -3.97682735743662
F         4.01938752766376      -2.66785952278279      -3.94328500415949
F         8.29377168232979      -0.59726562050650      -1.30629115203696
F         7.55178636229947      -2.28111387103965      -0.19089670130091
F         3.75959445746160      -3.10367926842164      -1.60631431619522
F         5.22711112308652      -2.97804734360453      -0.05672638418467
F         4.70383531185702      -1.53671979950032      -6.28207885056688
F         6.17412690961603      -2.87494349432118      -5.45541106086489
F         6.52086132455945      -0.74732217547996      -5.44553252230741
F         6.38954833485231       1.02781506749347      -0.20767425155188
F         5.60507107367738      -0.61069756132252       0.94637468539970
F         7.64327804753764       0.01907625155092       1.22280220921182
F         5.53917088047520      -4.76135224845068      -3.05263382548164
F         4.77586275120229      -5.45319674186028      -1.15948959550508
F         6.81298476537124      -4.76695185746520      -1.31125255766831
