22
C4H12BF4N optimized with ADF in AMS.
N         0.34223418614437      -0.16248626756754       0.21588783120662
C        -0.21300594128490      -1.45220733090648       0.75719737861089
C         1.59860859319214       0.20059257059716       0.96114766621376
C        -0.67664685787419       0.93386595559002       0.37444588269361
C         0.66154789039547      -0.33384567220500      -1.23270307087979
H         0.54602687942908      -2.23193119471884       0.61508811347172
H        -0.44115148022041      -1.31706408085857       1.82321808470596
H        -1.12076713048047      -1.69362731212385       0.18919738352938
H         1.98422519373448       1.13636826287531       0.53638914712208
H         1.35334515327569       0.32466904360425       2.02460742927199
H         2.32200256553871      -0.61221544846460       0.81778765396295
H        -0.24494461476371       1.85720843570440      -0.03277734310965
H        -1.57137095838724       0.64688770762404      -0.19247599140628
H        -0.90789147254947       1.04679529639268       1.44240746729240
H         1.06629822993204       0.60999612189914      -1.61972425230576
H         1.40402196914594      -1.13491400680249      -1.33793475460341
H        -0.25851918505322      -0.59883949392008      -1.76860015565901
B        -0.46921951419040       0.27777663277436       3.96286237962775
F        -0.75736799661624       0.43722311196457       5.31131297018151
F         0.49616975976617      -0.76853456811984       3.74655853904187
F         0.07119721657835       1.48255715386258       3.38986445294329
F        -1.64499835421221      -0.06364762460125       3.20495978938811
