49
C13H21F6N3O4S2 optimized with ForceField in AMS.
N        -1.27788412651685       1.30818309780802      -0.23310212016300
N        -2.66050294097660      -0.39561883849808       0.12970015026768
C         1.10876861992828       1.93991236056514      -0.21478588174848
C         1.58582093512471       0.49002837838073      -0.38120922380374
C        -0.26564199518293       2.15927605223509      -0.85728440259197
C         2.98960263632938       0.29710735722997       0.19785997932658
C         3.44292330744465      -1.15953639717369       0.04875943898253
C        -1.79918644361397       0.17173350135140      -0.73625526873341
C        -1.82172885046413       1.45984361740720       0.99133994322180
C        -2.68360472973391       0.40459862872768       1.21471433369065
C        -3.37638366096749      -1.65631443365301      -0.04733710297505
C         4.83981751836998      -1.36189425248177       0.62454827720505
C        -4.83629763607563      -1.38967846445249      -0.38691430700181
H         1.83724101615951       2.62585969837122      -0.70025526114757
H         1.05792793467481       2.19977782328637       0.86511680042481
H         1.59202964538404       0.22392035676213      -1.46159133184901
H         0.88518348965767      -0.19223261754317       0.14760119660405
H        -0.56118752825965       3.22512026655862      -0.74775316131371
H        -0.20094313199151       1.94206936162823      -1.94507973740230
H         2.98306682514825       0.57260100362923       1.27573633395591
H         3.70305608248294       0.96329237775668      -0.33552587574672
H         3.45267260509349      -1.44173013613043      -1.02685802160796
H         2.73438781770364      -1.83043255185243       0.58243756204798
H        -1.53414981376964      -0.25002544640451      -1.69721679439926
H        -1.59372061216109       2.26508067138227       1.67766184683382
H        -3.26473739385320       0.22265801159342       2.10956029086147
H        -2.91593144178500      -2.24299397889946      -0.87226493418994
H        -3.30982389502522      -2.26015837612629       0.88375777351102
H         4.84864589788324      -1.11489566107740       1.70758151502914
H         5.57173448664548      -0.71686116800548       0.09340733528979
H         5.14183061922698      -2.42277047360870       0.49846752300752
H        -5.32478164837254      -0.82862827020071       0.43751453048242
H        -5.36814316648293      -2.35341443775011      -0.53228533217909
H        -4.90267590622761      -0.79806778210182      -1.32485748964875
N        -0.27261293942365       1.21793114283010      -6.62509534102426
S        -0.55773280123529       0.06882689265688      -5.49146373409590
S        -1.00770708202855       2.68344051421691      -6.60511993742468
C        -1.86033678934915      -1.00471722396064      -6.05794560591792
C         0.08767308836906       3.87620594082096      -5.86415598710375
O         0.68762058894745      -0.74565290051762      -5.28617929004756
O        -0.96354904788395       0.70174839400529      -4.19039095590615
O        -2.29088510876384       2.62547213838966      -5.82301127553380
O        -1.30027423174655       3.10839549356802      -8.01586219943783
F        -2.08871646751685      -1.99241058846320      -5.11873470324409
F        -1.48931551163104      -1.58796309680404      -7.25436629672631
F        -3.01830959549363      -0.27490236702868      -6.24467287413854
F        -0.52648321185308       5.11381509629451      -5.83211564000997
F         1.24819708983995       3.96147493740477      -6.60942689001378
F         0.39897001797198       3.48617354217325      -4.57572784971587
