47
C15H25F3N2O2 optimized with DFTB in AMS.
N         1.32375327956809       1.62267808460209       1.79851299203482
N        -0.78070214526374       1.94151974552433       1.45558877984756
C         2.75267908871588       1.47138454107761       1.56357804747867
C        -1.99671733896986       2.39818687001686       0.79458635317437
C         3.11869756457757      -0.01259970648545       1.49333593533383
C        -2.32795454086587       1.50975691738794      -0.40486449781704
C         2.37563345147269      -0.73065114588450       0.36184122118915
C        -2.44218808918735       0.03382928324033      -0.00977583736888
C         0.42472468884995       1.94984178205329       0.86948243842650
C         0.69867601952710       1.51588980730278       3.01828256558700
C        -0.62265317968913       1.72343566386445       2.80326893675083
C         2.74430186009158      -2.21592347282796       0.29911135967394
C        -2.71227348448050      -0.85056975090471      -1.23084683245075
C         1.96062984121890      -2.93300518791431      -0.79886115440307
C        -2.76159721268253      -2.32785929356273      -0.84543817461850
H         3.28071621674883       1.97091138406369       2.37812099203933
H         2.98873583334800       1.98857688055884       0.63185379288089
H        -1.81987998712304       3.43035247209408       0.47323111462538
H        -2.80464563500961       2.37868297905804       1.52991012275897
H         2.88303629067737      -0.49018211990938       2.44977233039466
H         4.19794174946252      -0.08856332920712       1.33460518249387
H        -3.27307251982569       1.85599550053578      -0.83233281582758
H        -1.55333793819731       1.62658348170301      -1.16862985766799
H         2.61585388853920      -0.25166183797389      -0.59353567959842
H         1.29510763949496      -0.63528527059144       0.51947757651896
H        -3.24869665542135      -0.08882129662327       0.72120091017117
H        -1.50888806111806      -0.28518766372749       0.46800308974102
H         0.61045358724296       1.97673483578314      -0.18838501214460
H         1.24429038546111       1.30754734381117       3.92144063940854
H        -1.45762869475951       1.72863518036745       3.48147107014510
H         2.52935588824006      -2.68468077841408       1.26541537828108
H         3.81766114429935      -2.31789595731317       0.10878843107343
H        -3.66304906193920      -0.55943501019186      -1.68916805681545
H        -1.92147291449753      -0.69512038030984      -1.97259637656582
H         2.17500799491351      -2.49118967867243      -1.77285315841031
H         0.88776580039103      -2.85844533457718      -0.61316720418739
H         2.23550189145719      -3.98741147452146      -0.82706972275131
H        -3.55077322801571      -2.50697489765227      -0.11402262005839
H        -1.80993577526955      -2.64114202968992      -0.41292417175470
H        -2.95947584546522      -2.93750499765798      -1.72705957981135
C         1.45144002809501       4.68670452267251       1.20500583973844
O         0.49638614392711       4.14764313800536       0.61578647490814
O         2.51007725008634       4.22425740007520       1.59926382040216
C         1.19237840494289       6.23861443782467       1.51129664293443
F         2.25811676404157       6.85186177844452       2.03758202876479
F         0.18138124500970       6.37549133629320       2.39427722177622
F         0.84244639388023       6.92100150935206       0.40929940999831
