52
C16H33NO2 optimized with DFTB in AMS.
N        -0.26566690069459       1.23415177827154       0.06692161141126
C         0.55456425820026       1.87110442569579       1.14788143278821
C        -0.89637175599248       2.40487199212330      -0.61700254984042
C         0.60724133435804       0.50248646774860      -0.91807757989383
C        -1.30003283787230       0.34275617331984       0.68980257331236
C         1.12654611867978       3.13898059434625       0.53051772696230
C         0.17181398136530       3.49853234056160      -0.62009416043627
C         1.38332492849718      -0.67699809617560      -0.31993279941695
C        -2.22485400335021      -0.34087923298866      -0.30892352480430
C         2.87664417330162      -0.38334482683624      -0.12319640850626
C        -3.29096940703993      -1.12614837641716       0.46575951968844
C         3.47411812770130      -1.35898655031448       0.89707375082692
C        -4.23422267618584      -1.86735864864691      -0.48597377439221
C         4.95875626908383      -1.08657331910996       1.12582978933611
C        -5.29599296195038      -2.64949531788967       0.28513149361485
H         1.29692643375349       1.15709963187976       1.49977917803061
H        -0.12035850423260       2.09162077960850       1.97930838083991
H        -1.76120006232044       2.70593611835300      -0.02210972885441
H        -1.22576035096613       2.12242079623449      -1.61723731394262
H         1.29427533675842       1.24045926646637      -1.33951480863329
H        -0.04931777791077       0.16256223684210      -1.72207535461881
H        -1.87229352220922       0.96674897598323       1.37917556495147
H        -0.76422584319818      -0.39049803154422       1.29479368663341
H         2.13938135451070       2.97758285971465       0.15492685591752
H         1.16568254605695       3.93355554519863       1.27746852311594
H        -0.29170118896275       4.47490912920964      -0.46986392649002
H         0.70176212280462       3.51921317615622      -1.57496957878022
H         1.26858969852913      -1.53676178271271      -0.98613418186163
H         0.95950352687994      -0.95472513759735       0.64612746943061
H        -1.66516901331143      -1.03367846840316      -0.94422862169390
H        -2.71172705945952       0.39595660671138      -0.95614804886156
H         3.01454028006842       0.63962607614508       0.24211855335327
H         3.40253996430687      -0.46200124875973      -1.08149801753643
H        -3.86693732436142      -0.43661492747657       1.09110492575006
H        -2.79759587664373      -1.84449466519788       1.12776739003661
H         3.34013752495807      -2.38558885125129       0.54044114564112
H         2.92973827354115      -1.25536700708260       1.84167855380083
H        -3.65479932347477      -2.55684333141545      -1.10959037423905
H        -4.72285516931827      -1.14622753418473      -1.15056338968135
H         5.35431582957326      -1.78200316119053       1.86625811259130
H         5.52196356234232      -1.20862454721735       0.19872205804661
H         5.10895074313516      -0.06941894333484       1.49125161418751
H        -5.95444962702175      -3.17125356868305      -0.40966366016417
H        -4.82734117719520      -3.38533691755671       0.93966789394485
H        -5.89819564097395      -1.97571758545116       0.89595682368786
C         0.36068645188568      -0.59987042089149       5.08132131455626
C         0.09202435481056      -0.10866978901980       3.64065627234200
O         0.81911057225206      -0.59963235252325       2.74251104461046
O        -0.82569599095656       0.72025184530509       3.48483882440078
H         1.42722427363390      -0.76000887982900       5.22846761093586
H        -0.01834125384322       0.12005273090499       5.80370463218284
H        -0.15702731514233      -1.54942163677849       5.21707456111957
