64
C18H26F18NP optimized with ForceField in AMS.
N         1.00338007244142      -0.29235021170481       0.00875325967141
C         2.07293257189679       0.08024802380584      -0.96807753445950
C         1.66797334013799      -1.22436918970143       0.97099103856795
C         0.52607494768687       0.92436032103070       0.74412896022929
C        -0.10559362880150      -0.99853536547006      -0.71167845088580
C         3.27046736657540      -0.81942564017421      -0.72731445019959
C         3.16375722475452      -1.16538824658669       0.73060146801033
C        -0.21159266523071       1.95992065717067      -0.13846743276836
C        -1.29093345239823      -1.41656544302344       0.19128545067209
C        -0.50345785724573       3.24057282011506       0.65280158157155
C        -2.27424646850981      -2.30323290961982      -0.58005551943445
C        -1.26283636268729       4.25502542095086      -0.19798611627967
C        -3.45231519977963      -2.71836556892203       0.29652046599579
H         2.42492316693209       1.12847797956332      -0.82866933410941
H         1.74748958813471      -0.00075466602554      -2.03077264591305
H         1.35884270169864      -2.28374869185973       0.81289228381725
H         1.44572849111634      -0.98997806644100       2.03743237130527
H        -0.14998589604324       0.63550924199837       1.57930418646704
H         1.39423025054903       1.42810131193990       1.22980333227931
H        -0.50153424501593      -0.36587857455513      -1.53681608585233
H         0.29884515706960      -1.91018854471647      -1.21076137159050
H         3.17960668126998      -1.74237056925353      -1.34248320917873
H         4.23051298975166      -0.30813335019559      -0.95754381415658
H         3.61371600641856      -0.35486135693729       1.34619091322263
H         3.66230917353982      -2.13228314836514       0.96013425047006
H         0.39684721989044       2.21892590114411      -1.03024820671806
H        -1.17851148204350       1.54140798999085      -0.48750308473405
H        -0.92789886190359      -1.97265828826211       1.08100955706211
H        -1.83718930642344      -0.51648026999707       0.54284258970500
H         0.45141473655202       3.69892993654887       0.99095966975695
H        -1.11398188205661       2.99600190469573       1.54931125981188
H        -2.66028820202814      -1.75321838598287      -1.46589560833110
H        -1.75062779547610      -3.21713920785123      -0.93142135081815
H        -2.23431416637780       3.83009410789094      -0.52956231485558
H        -0.66253428803574       4.53804772199439      -1.08865975026233
H        -1.46161882458858       5.16824175623894       0.40167557429084
H        -4.00336482061438      -1.82169838491823       0.65212685533358
H        -3.09503167320308      -3.30164348573216       1.17171120013886
H        -4.14810416102986      -3.35235100319177      -0.29265254763595
P         0.87293141853354      -8.08605165427846      -1.75396241905268
F         0.61879984846676      -7.90878590799128      -0.05911534102030
F         1.76475304312293      -6.75521989195626      -2.39011352075676
F         0.27266789466152      -9.62814202078483      -1.28275224131936
C         2.66360416668778      -8.41648681021085      -1.08823876538821
C        -0.61103165379361      -6.85720847467903      -1.53843722913637
C         0.49456439420232      -8.88665953616555      -3.47083574714445
C         2.85800760379376      -9.64725041407303      -0.16496444252090
C        -1.17607956532187      -6.20171202545709      -2.81704095349277
C         1.42300307764431     -10.01439696020948      -3.95521381162931
F         3.08542266322454      -7.30858432369608      -0.36341383929296
F         3.54212415365584      -8.55433645537818      -2.14508872492632
F        -0.22619104476380      -5.80089619898017      -0.71701153364167
F        -1.66318761153003      -7.52371757667065      -0.92553303758385
F         0.56313669375646      -7.90194052484429      -4.43979656655107
F        -0.79823433186129      -9.39039246425300      -3.47353067561818
F         4.19269949334173      -9.72801087553087       0.19120154208413
F         2.52307596310277     -10.82297181584519      -0.80022844277126
F         2.11939622342841      -9.54004577113907       0.99952438221063
F        -2.11882630661052      -5.25810070201357      -2.45269359868223
F        -0.18624924827483      -5.55440680057823      -3.53241891629413
F        -1.81636428702454      -7.11829777095874      -3.62474687742851
F         2.69022115712852      -9.53718280573577      -4.22144656103508
F         0.91710042479748     -10.52315154749701      -5.13857570965401
F         1.48720417050880     -11.05164360226454      -3.05121879165035
