44
C14H26N2O2 optimized with ForceField in AMS.
N         0.23513488823977       2.30298080264430      -0.22099904852998
N        -1.83914409720501       1.49855416676067      -0.21233027330109
C         1.62351384497548       2.51748684310978      -0.62827906036995
C         2.56300784148630       1.51958172533143       0.06612070507303
C        -3.03548315703475       0.76450986665875      -0.62290034334305
C         2.15640361603079       0.06449409759421      -0.21140946983527
C        -3.10736871662757      -0.60542808508872       0.06686322471323
C        -0.72869741307298       1.70299645931388      -0.94735380308001
C        -0.28690576994453       2.49422607780074       1.00749947393831
C        -1.57408965161086       1.99670190441424       1.01232260566988
C         3.15520063335677      -0.92574311277316       0.39330910864221
C        -1.94900128405019      -1.52017065280806      -0.35573018568893
C         2.69530243524693      -2.36521605732354       0.17356242273700
C        -2.04762040363040      -2.88775260487908       0.31243085254238
H         1.92714370589961       3.55543257059042      -0.37155579570334
H         1.71861336484855       2.40295466244099      -1.73060436886473
H         3.59669231558060       1.69199818566006      -0.30381443099119
H         2.55468972960016       1.70630117399069       1.16223668286363
H        -3.93671401708181       1.35909009245239      -0.35980276666633
H        -3.03801233110728       0.62290466956412      -1.72640800248288
H         2.09037780774740      -0.10099038459815      -1.30947607900833
H         1.15908477343935      -0.12452306277439       0.23759213382406
H        -4.07124663999103      -1.08704407322471      -0.20701325081422
H        -3.09547767436056      -0.46668828037183       1.17023688015620
H        -0.59832082355290       1.35506523972586      -1.96528623452469
H         0.24455315347973       2.91718887798257       1.85049229634861
H        -2.24909313670111       1.96108780035872       1.85808452348453
H         3.25099356521715      -0.74273435448767       1.48590701313542
H         4.15220798567641      -0.78717061557863      -0.07833190878613
H        -1.95905190609095      -1.65541176200496      -1.45927058370523
H        -0.98174800745687      -1.06074457642806      -0.06713225480473
H         2.60243047203726      -2.57943331122176      -0.91266747304110
H         1.71271406892320      -2.53621673391178       0.66420526464672
H         3.43701764794550      -3.06505548638663       0.61232064095210
H        -2.02466532454027      -2.77965278105018       1.41786613242138
H        -1.18603121291937      -3.51546049177872       0.00074199900509
H        -2.98725807036371      -3.39755190035757       0.01121350380152
C         4.41286672775920       5.51631332986549      -2.35425649551534
C         4.37860759953716       4.08347806514197      -2.78341157627354
O         3.68515134392317       3.74728483558923      -3.72952586823882
O         5.04377762265963       3.24791714413815      -2.19269335418358
H         4.81255181583918       6.14283596411751      -3.17929763106274
H         3.38606287208410       5.85535290026328      -2.10231274029548
H         5.06152999520876       5.64288753263814      -1.46108191584461
