29
C9H16N2O2 optimized with DFTB in AMS.
N         0.77960130284026      -0.67164302382004      -0.44341552070528
N        -1.09185850463455      -0.51844658606897       0.61102655527978
C         2.00906633395958      -0.31711699190567      -1.14737549896448
C         2.80626270864967       0.73124590011122      -0.36047785624181
C        -0.25686533067997       0.13475405923915      -0.19796218726387
C         0.63659700797728      -1.83130853240561       0.27097605543284
C        -0.57565490576284      -1.75860910458087       0.89870738111534
C         2.42607268884270       2.16940108929913      -0.70103841149522
C        -2.33942029966391       0.00172308622534       1.13709293105271
H         1.75442091204138       0.03564413294812      -2.15184270197139
H         2.59386235374047      -1.23928014976280      -1.21337426729204
H         2.66676361765507       0.54627322094756       0.70803901736622
H         3.86413586891885       0.57867726615769      -0.59139658438897
H        -0.41931599035428       1.11543372963521      -0.60852850804363
H         1.31717988231611      -2.65419852704331       0.13521549333123
H        -1.07016365374594      -2.44047892985824       1.56628158555467
H         1.39493635918049       2.38485171064876      -0.41553871394202
H         2.53639794379919       2.35744967294118      -1.77059028230533
H         3.07756759055279       2.85611082765352      -0.16023247230184
H        -2.52263793567408       0.98921507559201       0.71622042531348
H        -3.15509769721966      -0.67105190419503       0.86891486496712
H        -2.26926328502434       0.07157407483934       2.22364484625098
C         4.39584744604045      -2.08657309476303       2.53796649852076
C         3.26637445001423      -1.97552920336894       1.48604801771581
O         3.46679249144716      -2.48344423811439       0.37012035573167
O         2.22705141708641      -1.37417640958352       1.86089386191612
H         5.33317281662087      -2.35673362376472       2.05596577331150
H         4.50099052178628      -1.14108584426156       3.06736513940748
H         4.12124636549034      -2.86000749994159       3.25480320774816
