37
C11H24ClN optimized with DFTB in AMS.
N         2.04719357232188       0.30228473605324      -0.05419114609951
C         2.26134749062386      -1.01824310859570       0.63914412051212
C         3.13915574719743       0.41601322903911      -1.10398960739827
C         0.70999884724109       0.35309540206074      -0.72442268517399
C         3.72822917009996      -1.35000501840996       0.42343928667807
C         3.99837426395338      -0.83773032709414      -0.98703265072282
C         2.18573834117773       1.41996672777463       0.92198919800540
C        -0.47332595447655       0.21109982789187       0.23185645592366
C        -1.77828523392773       0.14173426434909      -0.57038211156217
C        -2.98873572645687       0.01614683925829       0.35977848047432
C        -4.29464476722930      -0.05760985238876      -0.43788157554102
C        -5.50401782713477      -0.18200184535347       0.48692979787173
H         1.62123512522370      -1.76124945145776       0.15608064415729
H         1.98151774228782      -0.92510339368494       1.68815695011567
H         3.73388688210045       1.30207871193976      -0.87328179316428
H         2.68017678793072       0.52246876513246      -2.08753163632861
H         0.69097920465644      -0.45350642238191      -1.46285050605754
H         0.65184809500870       1.31014027725644      -1.24989016306298
H         3.90404632234030      -2.42199336794201       0.52044823932424
H         4.35550152681090      -0.80923882222436       1.13600145265434
H         5.05059588947645      -0.57916928212124      -1.11383256855860
H         3.71002860132930      -1.57993392375349      -1.73646551277376
H         1.48488874102141       1.27966605231648       1.74153527482882
H         3.21721637183208       1.42160455426366       1.28968125475734
H         1.98133429059609       2.35721124330719       0.40776213619780
H        -0.36907292309452      -0.69621616562761       0.83306285041457
H        -0.51598342612993       1.06582197623576       0.91178929506838
H        -1.74437582767200      -0.71879593700855      -1.24727663011903
H        -1.87708050188108       1.04505353305193      -1.18175507367362
H        -3.01951086046497       0.87867133424106       1.03421631731178
H        -2.88294520428222      -0.88466190589375       0.97406779348676
H        -4.39638483916071       0.84337243558970      -1.05232160817300
H        -4.26050550394527      -0.92026028200342      -1.11201111654807
H        -5.56615578874312       0.67968037467198       1.15302073714486
H        -6.41988581973121      -0.23284557987748      -0.10208363506276
H        -5.43003559617791      -1.08553454674407       1.09377959939819
Cl        5.36924378707848       1.41022328932921       0.88535125619466
