30
C6H14F2N2O4S2 optimized with ADF in AMS.
N         1.04967133332430       0.43032738518608      -0.79096697376013
C        -0.31992300627655       1.06866600709026      -0.73483119857196
C         1.28041753980178       0.01828345075662       0.65150086334613
C        -1.12920177516829       0.20157696153182       0.23287126925948
C        -0.07192281177627      -0.51065450047197       1.12204906608720
C         2.09743715167315       1.38907833518684      -1.26421558257019
C         1.03117281908723      -0.78379028761777      -1.67487364600692
H        -0.72623707901290       1.14335535175483      -1.75268600379681
H        -0.16566412264453       2.08140727250360      -0.33522997258623
H         1.57519415920247       0.93470229574426       1.18347897642459
H         2.12017001048135      -0.68540485595360       0.68738321446305
H        -1.75121055553761      -0.52701859758947      -0.30637691980682
H        -1.81021768967646       0.83310405735819       0.82106552716046
H        -0.21138373439197      -0.29341548554092       2.19008097935817
H        -0.12993695722493      -1.60252363669512       1.00644868134852
H         1.92468712479085       1.60374504632105      -2.32566131154581
H         2.02194356533723       2.30257840429132      -0.66188649137409
H         3.07905916195831       0.92349854207233      -1.13123305174898
H         0.24387022033991      -1.46255802037745      -1.32797348378046
H         0.82981915810115      -0.45739145389407      -2.70243372637338
H         2.01644689568716      -1.26283092472313      -1.62828476445141
N         5.87573135938420      -1.30281952784682      -1.34082620200563
S         5.04223042933012      -1.38002015302528       0.01317169800925
S         5.32688621484958      -0.45482898881045      -2.58811738592634
F         3.71851074995360      -2.36258221672888      -0.38299358704834
F         5.43545540780309       1.12194899465562      -2.06152032666827
O         5.77054660806461      -2.16365223213556       0.98270048183095
O         4.36457657814250      -0.14845429242015       0.42221868535825
O         3.89651764277454      -0.59827535243763      -2.85400949411878
O         6.27843880572238      -0.54721753678457      -3.66880299250551
