36
C8H18F2N2O4S2 optimized with ForceField in AMS.
N        -0.36058766060955       0.36985049669032       0.03802187804925
C        -1.40927398419814       0.59728084195458      -0.99099242832359
C        -0.80868776159001      -0.83305309794869       0.79925354820987
C        -2.68317912989440      -0.04836501093405      -0.48802258334676
C        -2.19030018378759      -1.23745461646699       0.29527952907922
C         0.95343916168621       0.14094013066537      -0.63702014312850
C        -0.29720769015156       1.55850418357156       0.92917317900261
C         2.15109933124499       0.00230293257438       0.33141833359789
C         3.37709520357883      -0.55526001831251      -0.38610759977866
H        -1.14955137425348       0.10825698656954      -1.95947374723933
H        -1.57742200218647       1.67694262283321      -1.21185277969013
H        -0.86926773596887      -0.63977313645480       1.89549814907702
H        -0.12298149191193      -1.70135806893686       0.67381380691246
H        -3.35051940970045      -0.35372349735976      -1.32315686942820
H        -3.22328015816821       0.65158242669601       0.18678201964194
H        -2.88040264211081      -1.48745403530785       1.12987697814907
H        -2.10073336614737      -2.11481333177700      -0.38400576851509
H         1.17288517958650       0.98246292583632      -1.33404847207300
H         0.89428644485994      -0.78009057293930      -1.26339972724217
H         0.09046877705829       2.44623870464739       0.38102537551776
H        -1.30393628595351       1.81288697741290       1.33000846485645
H         0.36176271105785       1.37571472726646       1.80549586086458
H         2.41683304551072       0.99955456706083       0.74344661727609
H         1.90383127760886      -0.66988220169430       1.17944659038930
H         4.23872829987588      -0.58240517348527       0.31378866822523
H         3.17657628161713      -1.58903777599426      -0.73845366555314
H         3.64239071867858       0.08404658811919      -1.25512912416460
N         2.69781814425537      -3.06558684777763      -5.27345375834184
S         3.93396678680306      -2.78580618080252      -4.23828017598776
S         2.92006412027071      -3.03253389748728      -6.89409735269265
F         4.21773814114246      -1.13749178495287      -4.15226629617403
F         3.83274713308107      -4.35938280695698      -7.35411601377712
O         3.57223073755042      -3.30028657282557      -2.87447736958260
O         5.17998943134578      -3.47127086723013      -4.72429936822041
O         3.65211257905339      -1.77946390953078      -7.28410894116750
O         1.58761742136629      -3.07691971952267      -7.58628167862167
