31
C9H20ClN optimized with ForceField in AMS.
N        -0.04747357447282       0.25625431077932       0.16156402883204
C        -0.94067124447814       1.28493056909195      -0.46199574732131
C        -0.51654610089559      -1.11973275382753      -0.19063294758519
C         1.32564310463930       0.48390269099241      -0.40185625915590
C        -2.43955017224394       1.08350682716273      -0.17102309865163
C        -2.00348929104635      -1.36417358915372       0.11913464579187
C        -2.88301420549477      -0.32161209934572      -0.56134033283264
C        -0.01461704338231       0.44445564012098       1.63826760123281
C         2.43809035483602      -0.44446256593454       0.14507132822509
C         3.77776736897565      -0.13743464245725      -0.52034306024161
H        -0.82433650313350       1.27718232803083      -1.57109758850843
H        -0.65575594016821       2.30757689062423      -0.12356575749096
H         0.05854028932123      -1.89110362353944       0.36562548180814
H        -0.35754267233332      -1.31599713982559      -1.27598644169311
H         1.64207032471937       1.53641866135399      -0.21268575685173
H         1.30561017134982       0.36347879144211      -1.51026477185015
H        -3.02276236221260       1.82068184006317      -0.76466161617386
H        -2.67336579958461       1.27851798786028       0.89608522380994
H        -2.18080165660185      -1.35875947977102       1.21570972972120
H        -2.28722437673850      -2.37114942386306      -0.25550928821149
H        -3.94133306985007      -0.47449051810981      -0.25843458634100
H        -2.81879580971918      -0.44097943512787      -1.66570044450065
H         0.53498955054844      -0.37748673329412       2.14369794705790
H         0.46644845395164       1.41121801030221       1.90773822503916
H        -1.02607920739337       0.44390868520844       2.08780213006172
H         2.56876568610425      -0.30265069583868       1.23754309831456
H         2.20090976630761      -1.50861310262222      -0.05645705566842
H         3.71304813336536      -0.30285671644863      -1.61715959635208
H         4.07508650933590       0.91490490185162      -0.32430779037315
H         4.55989157387363      -0.80886197616809      -0.10696142596236
Cl       -2.06160995947910      -4.99918638645700       1.34239613567124
