38
C10H22BF4N optimized with ForceField in AMS.
N        -1.43947427389985       0.40481314273267      -0.06092338564198
C        -1.76474906410249      -0.86808852170174      -0.77013186523470
C        -2.51648049747487       0.58732770299629       0.95239615605175
C        -0.11861782646590       0.32410481802588       0.63646202481425
C        -3.02778111318765      -1.45317889547703      -0.15467723211754
C        -3.68066706685955      -0.29660468720497       0.55466664473943
C        -1.47035722596848       1.54990658950887      -1.00879999119877
C         1.10589688251905       0.28585109628128      -0.30777866465054
C         2.37474363009943      -0.11484276680129       0.45627323801594
C         3.60230787553362      -0.08160490646984      -0.46107873387071
C         4.86670071575453      -0.48569819454784       0.29143660503382
H        -0.95375527563218      -1.62676433777702      -0.69722422446163
H        -1.94665521591992      -0.70860870421772      -1.85839936508302
H        -2.85131006510278       1.64623947648705       1.05043744164810
H        -2.18963030622464       0.26738235778409       1.96971282533336
H        -0.09806999599755      -0.58264044626182       1.28569532240113
H         0.00531510132865       1.20010119550551       1.31431992608733
H        -2.75552067687633      -2.23839217452719       0.58564639461419
H        -3.70049700826713      -1.88983317553421      -0.92465205429587
H        -4.35018939243517       0.24898923943435      -0.14611280948403
H        -4.26210310070418      -0.63574103793241       1.44004890654550
H        -0.79566907404329       1.37807877159474      -1.87526437988099
H        -2.49431907103249       1.69966872715955      -1.42048761083444
H        -1.15957594011284       2.49193186210308      -0.50450046726871
H         0.94343345911488      -0.43347686280906      -1.13762607361502
H         1.26160160597572       1.29511095683361      -0.74666297454857
H         2.24844669639752      -1.14205120894745       0.86424564539907
H         2.53068085488088       0.58632709087041       1.30622372979705
H         3.73837029774297       0.94499618916092      -0.86639534655980
H         3.45291933474554      -0.78018983159555      -1.31335789748612
H         5.04229532484485       0.19950208137689       1.14816635676452
H         5.74000739391348      -0.42950174648483      -0.39196385300571
H         4.77619756731248      -1.52774536688935       0.66588970790542
B         3.38915691703005      -2.65190483065494       3.71509178742965
F         4.15867796449231      -3.26172864029859       4.74155609375366
F         2.05328636889811      -2.47764753752414       4.16468078995108
F         3.39621656693176      -3.48112882143741       2.56194785825363
F         3.94840297829147      -1.38700122106080       3.39351621879927
