41
C11H24BF4N optimized with ADF in AMS.
N         0.10044630388410      -0.04673139343645      -0.10964030665224
C        -0.49814286038139       0.73217466808297      -1.27585249823572
C        -0.77306589204190      -1.24982102291915       0.17613326404950
C         1.48316237371326      -0.51750570813193      -0.54909900372277
C         0.19521400478975       0.81843151415882       1.13818337719211
C        -1.95452225143308       1.09810605501641      -1.06486140436291
C        -2.23782700207175      -0.90464799334375       0.40074277571767
C        -2.81359889553764      -0.13202348665049      -0.78339550061129
C         2.23081695106591      -1.37408583449424       0.45763549410876
C         1.15416097697150       1.98470352131901       1.03344236977831
C         3.62023347502498      -1.74750104294694      -0.08674834764414
C         4.60923931308394      -0.58412098954566      -0.10195650517012
H        -0.38194607871916       0.07515655146410      -2.15136066810511
H         0.13441757986136       1.61188435933661      -1.45674361114851
H        -0.34486477258254      -1.76387888836520       1.04656431913058
H        -0.66766929650466      -1.90506104321413      -0.70374816404254
H         2.04409767874569       0.38500215569655      -0.82526768874511
H         1.31436951898266      -1.07744598865452      -1.48198405735465
H        -0.82296702950923       1.17052973084687       1.34127967453107
H         0.47813154738407       0.13522588382552       1.95270931983775
H        -2.28254248986658       1.60984958573998      -1.98444844153405
H        -2.06155730512507       1.83854585320311      -0.25356772544308
H        -2.36155465886227      -0.32915904868731       1.33395039553464
H        -2.77420122806746      -1.85627868552340       0.55349983138213
H        -3.85896556964298       0.15314811738888      -0.58548502530321
H        -2.81924152730449      -0.78491308752148      -1.67556810148790
H         1.67558424670567      -2.30318587315928       0.67013427888093
H         2.36340537766029      -0.83963943604783       1.41474798216045
H         1.06749147457827       2.56882718164839       1.96255192705228
H         2.19922754182631       1.66843276160318       0.92490827298818
H         0.93230170149171       2.64977825394994       0.18673918461036
H         3.50818509342000      -2.15897737127824      -1.10629441827863
H         4.01782768769752      -2.56685051087010       0.53607743727016
H         4.74566758497897      -0.17911134524015       0.91458093864449
H         4.28025058441999       0.23837609703642      -0.75359407141393
H         5.59392281340879      -0.92169327052190      -0.45928113874364
B         2.37516702890505       2.40885089137367      -2.54584365278877
F         3.17267534724590       2.08272946589230      -1.39176432855336
F         3.11085988309090       3.14948633819823      -3.46673783764737
F         1.22943812750233       3.15520359191008      -2.07868023907892
F         1.90242046291128       1.18189700916112      -3.11267276830141
