32
C10H14F3NO3S optimized with ADF in AMS.
N         1.24908726466434      -0.20983958967265       0.61979124429711
C        -1.07827309577273      -0.37463714833511      -0.22322128035889
C        -0.18710838474355      -0.10528042284279       0.98824797131275
C        -2.49372677213028      -0.76956576111312       0.20091168412928
C        -3.31822675928520      -1.25248796984240      -0.99023154376922
C         1.80529389585452       0.74021464715296      -0.17248063500888
C         1.93444943736507      -1.31805424672344       0.97395437957307
C         3.10706050534184       0.61948745212288      -0.60135401053333
C         3.25685721217914      -1.47192128171829       0.57252118385212
C         3.84964913947470      -0.50561753098085      -0.21952075183258
H        -0.62582358246183      -1.20361664078747      -0.79257173573883
H        -1.10770871806813       0.51144713475464      -0.88395642977408
H        -0.36088813496915      -0.87475157300730       1.75292649521991
H        -0.34224993130634       0.89297198282033       1.42849579323617
H        -2.41841139884687      -1.58784426368313       0.93832301552154
H        -2.99231939921063       0.08137160179140       0.70078537949089
H        -4.34203639725301      -1.51297257469751      -0.68088399201076
H        -3.38529008517441      -0.48134634541882      -1.77428296107376
H        -2.85757260159153      -2.15503366128470      -1.42212934726183
H         1.16388706118224       1.57898191544916      -0.43570245183951
H         1.39539780216518      -2.03647898147864       1.59626735786670
H         3.53751490918522       1.39809810351473      -1.23026791182708
H         3.78132870609964      -2.38026466067925       0.86737868720373
H         4.88146037263633      -0.62116201165186      -0.55363350124681
S        -0.02515402707701      -3.86509752088098       0.28229118028105
O        -0.22623237517195      -3.28805458931125       1.63466690602454
O         0.87212422053929      -3.03556756196696      -0.56984403507748
O        -1.21474030649902      -4.39009681340622      -0.38313371440398
C         1.03989599298743      -5.36705294164906       0.63018884607211
F         0.40221231586275      -6.25123812051936       1.43301255744793
F         2.19798621756725      -4.98920019016339       1.26084756179940
F         1.38528477235668      -6.00367519809158      -0.51582858227129
