46
C12H26F6NP optimized with ForceField in AMS.
N         0.98897260303380      -0.30985605886750      -0.01207559327922
C         2.07248785297777       0.08922572044756      -0.96306464359674
C         1.64330188834513      -1.25132703904795       0.94762542416158
C         0.48838507439045       0.89171421022592       0.73314672786655
C        -0.10151195556852      -1.01395754444587      -0.76320742449851
C         3.28525675327828      -0.78396292351561      -0.70002318241879
C         3.14333254020322      -1.16852037289020       0.74592189686280
C        -0.25605316005685       1.92652048742664      -0.14546595933426
C        -1.29391999738752      -1.46189753687642       0.11511640945320
C        -0.56890602744973       3.19779568528367       0.65161206697540
C        -2.29034012611141      -2.29934937849621      -0.69307795820643
C        -1.30242478319638       4.22277689843402      -0.20956233110032
C        -3.47011673151796      -2.73529859511034       0.17231052877382
H         2.39840823254199       1.14435380709417      -0.81321283648336
H         1.77355561058952       0.00341293141546      -2.03255758803666
H         1.35446051300931      -2.31128862665218       0.75936304317633
H         1.39249835981525      -1.04135333217164       2.01234782693089
H        -0.18961160290157       0.58517718397363       1.55922503933092
H         1.34502260750519       1.40188229344399       1.23262074016098
H        -0.49073392031287      -0.37045183320870      -1.58263766821247
H         0.31831054712202      -1.91350011323320      -1.27136213936461
H         3.24204570515939      -1.69322802529691      -1.33941028844066
H         4.23688753317149      -0.23979209015735      -0.88527189098779
H         3.56890588741403      -0.37132727847828       1.39443410675871
H         3.64473081311885      -2.13709607820270       0.96177166124884
H         0.35452747515249       2.19787047136026      -1.03183370192897
H        -1.21651514922212       1.50024096625190      -0.50291838370545
H        -0.93470482893066      -2.06580883197464       0.97364979076109
H        -1.83137835134564      -0.57497429506273       0.51014962367241
H         0.37534596116245       3.65242519217424       1.02210436647658
H        -1.20525422182597       2.94286890928329       1.52698436134182
H        -2.67349164594404      -1.70209261365955      -1.54908778271721
H        -1.78448793546535      -3.20510565294174      -1.09229977956271
H        -2.25837249219579       3.79942524457534      -0.58502352707914
H        -0.67031821889013       4.52308807754257      -1.07252671209555
H        -1.52733386502056       5.12500792642837       0.39661807836581
H        -4.00388960288713      -1.84750769857876       0.57376543940943
H        -3.11601181832060      -3.36255199664050       1.01830505673437
H        -4.17999909772717      -3.33077362695920      -0.43871048064649
P        -2.09864267792593      -0.37015384500041       4.59256752134193
F        -2.27671507758621      -1.77155039364963       5.57037541810883
F        -2.12943658773746      -1.41700120851230       3.23293830585996
F        -3.78727770136076      -0.14915035427084       4.36649170267500
F        -1.86742124177459       1.06454226239043       3.67654201336450
F        -2.17190463627969       0.49618484582024       6.07419108207942
F        -0.38374024454807      -0.46895557767035       4.63267103520420
