46
C14H26F3NO2 optimized with ForceField in AMS.
N        -1.89530022048825       0.14264803669295      -0.05201476391990
C        -2.11479041347664      -1.06383821812539      -0.90710448657803
C        -3.01376725434496       0.12075677864131       0.94105635593145
C        -0.58729658716195       0.03494386459137       0.67257707547113
C        -3.49231823900869      -1.61732318065912      -0.60126739985520
C        -3.72563594858814      -1.21306496902928       0.82628650070874
C        -1.97962494766004       1.37653171026651      -0.89976811940456
C         0.66179770061114       0.04043778613720      -0.24177084407907
C        -1.74955150553315       2.69451420573986      -0.13775805775011
C         1.93289426560300      -0.18458101308574       0.58675685422435
C         3.18073467336028      -0.21923059497561      -0.30371620894685
C         4.44737329700165      -0.39034328537394       0.54178912713621
C         5.70013644104283      -0.40433994779113      -0.32852845800206
H        -1.38737900986610      -1.87744318475278      -0.68187988913872
H        -2.02610548761805      -0.85322376811805      -1.99761558560150
H        -3.77447414380457       0.90931260417113       0.73798372948483
H        -2.67431774038834       0.27559331890323       1.99114051802856
H        -0.57460590022564      -0.90331447441868       1.27522899026585
H        -0.48273106923518       0.86025306124240       1.41152209351128
H        -3.53363711490377      -2.72160995108702      -0.72486402909961
H        -4.24817329710082      -1.13496687810878      -1.26011803130056
H        -4.81048029404136      -1.12668492160609       1.05429568694320
H        -3.25421732174193      -1.95295200739717       1.51102977027863
H        -1.25108471831492       1.33248113378446      -1.73856900990474
H        -2.98129632892263       1.43445433665536      -1.38483117088202
H         0.58681416652040      -0.75602796102052      -1.01203758862121
H         0.75577822154499       1.01861928747388      -0.75755990763199
H        -1.96469630198648       3.54747042057039      -0.81540239345913
H        -2.41695797597776       2.78131188151711       0.74381922119242
H        -0.69418398744196       2.78952189345683       0.18951099802381
H         1.85102541022195      -1.14833995221576       1.13679816203296
H         2.03192752544370       0.63913240603485       1.32877785769585
H         3.24887109880859       0.72992944426457      -0.88036977681551
H         3.09844237064140      -1.06613588164694      -1.02061265854580
H         4.52391759444510       0.44890511352784       1.26415837868008
H         4.39407865599064      -1.34312525624037       1.11292055744336
H         5.78374226360470       0.54411749286773      -0.90116624194879
H         6.59771339272644      -0.50865472584510       0.31695836566254
H         5.66845253400462      -1.26057503270160      -1.03568776285125
C         4.13495579651510       2.99963294041601       3.33065180770384
O         3.68853308149651       3.47160225370930       2.29695128229804
O         3.46204880408622       3.03246065616094       4.34855242899746
C         5.50030644017847       2.38070654835084       3.35705859544459
F         6.28891897985650       3.03836232130923       4.28227414856349
F         6.09897233423587       2.46860768707362       2.11210268547071
F         5.39578116899124       1.04974769494014       3.71521928574322
