54
C16H36ClN optimized with ForceField in AMS.
N        -0.00272820883769      -0.00259550777137      -0.00195387471073
C         0.84970726544101      -1.02729957301656       0.70023149591458
C        -0.86394783845343       0.68869653422275       1.02290280625015
C        -0.84016837349402      -0.70621524078018      -1.03795133745535
C         0.84323674006457       1.03435569951875      -0.69398489437926
C         1.90374054199176      -0.47124999525671       1.69162265380385
C        -1.93631013266739       1.66111108260243       0.46633156435251
C        -1.90515191389906      -1.69448243969543      -0.49637510078734
C         1.92003351688367       0.49373766717925      -1.67028215507288
C         2.68285334080053      -1.61830447034902       2.34858375402303
C        -2.73239653151133       2.29689222783292       1.61393632642992
C        -2.66960283344061      -2.34629220732851      -1.65639497294017
C         2.66746189878962       1.65434771149443      -2.34042652043989
C         3.72732055000155      -1.09080897639745       3.32864352360779
C        -3.78452882013653       3.26963245912723       1.08813842770900
C        -3.71264205666974      -3.33727753544991      -1.14754797497534
C         3.74749037612466       1.14524571810072      -3.29068920432876
H         1.37376934632088      -1.67200968861542      -0.04007129592968
H         0.20948652905823      -1.71668210564321       1.29093989420878
H        -0.23170055632734       1.29314558089232       1.70785014194273
H        -1.37185085168936      -0.05773214562669       1.67339445678218
H        -0.19053985018465      -1.30170257607214      -1.71406702204741
H        -1.35003095544609       0.03249139576974      -1.69567612917369
H         1.34672028102571       1.68918787587373       0.05179230147733
H         0.19974506010560       1.71300733822642      -1.29352250864909
H         1.41428662030321       0.11054045565163       2.49829596854667
H         2.62862666992486       0.18330595857520       1.17000926756080
H        -2.64979302056401       1.13162616026416      -0.19677005758108
H        -1.45824397956158       2.48029290805395      -0.10774521417042
H        -2.63839886900914      -1.17505180504800       0.15307025182663
H        -1.42352670885851      -2.50411898042195       0.08800939929154
H         1.45451371149580      -0.11237827732931      -2.47290322413101
H         2.66015876697401      -0.13485841563477      -1.13486498928401
H         3.19514018642971      -2.22079164756608       1.56726341228052
H         1.98002611071724      -2.28129966782379       2.89909321807216
H        -2.04206865478814       2.84919282286075       2.28848998552644
H        -3.23967220212261       1.50298745469273       2.20420014000077
H        -1.95764994190457      -2.88707341482046      -2.31774383756462
H        -3.18048098633799      -1.56257525789348      -2.25706991253431
H         3.14233377610741       2.29428725681657      -1.56666007231507
H         1.95024057829286       2.27881562905361      -2.91678150625756
H         3.23883906717339      -0.50110782634583       4.13346338679822
H         4.46431467213584      -0.45029933614297       2.79940688095527
H         4.26599063128651      -1.94427149264812       3.79166972903938
H        -4.50919019106100       2.73815767022914       0.43545326438283
H        -3.30114543809690       4.08688517055168       0.51140901186714
H        -4.33620132508007       3.71677547106022       1.94175808305974
H        -4.45810628006229      -2.81816565075503      -0.50855171753160
H        -3.22433350492618      -4.14473675922245      -0.56126537073664
H        -4.24072005457860      -3.79549283232673      -2.01016654705208
H         3.29155821438161       0.54226504844046      -4.10473512936361
H         4.48466036821419       0.52293897942825      -2.74021037177987
H         4.27949694383493       2.00828275483179      -3.74326884954326
Cl        4.64812324552946       2.33844894843073       1.02520450632479
