33
C9H17BF4N2 optimized with ForceField in AMS.
N        -0.02379285690812      -1.33128405030428       0.34609014966200
N        -2.04482856408359      -0.41233229473842       0.23570975805809
C         1.33290033526310      -1.63158021260021       0.79847259265691
C         2.36956509713186      -0.85435989995265      -0.02340195299069
C         2.19356577064047       0.66411437389531       0.12089576327028
C        -0.93422446487127      -0.56826069261961       0.98147120195467
C        -0.57929511686922      -1.67511011264830      -0.83372055492754
C        -1.83319460765842      -1.10395101543353      -0.90256403970748
C        -3.20360550087182       0.41630101909533       0.55521811096127
C         3.28743910151682       1.42101325976642      -0.62558817360399
C        -3.16216776127663       1.71333834728437      -0.24500742111639
H         1.44318218751917      -1.37165687181752       1.87444025463859
H         1.51973179504063      -2.72242047016840       0.69719563925448
H         2.28545420674741      -1.14343575788481      -1.09385054667748
H         3.38346526467734      -1.13959821767139       0.32958097769074
H         1.20786607920686       0.97095908131383      -0.29204424720514
H         2.22887154368708       0.94653190938107       1.19609533560214
H        -0.77241869700547      -0.09702492148865       1.94329081938662
H        -0.09976321034773      -2.27340169330554      -1.59736494583030
H        -4.13614612461757      -0.14188876425941       0.32404562293360
H        -3.20732833798835       0.66112402663885       1.63990745830943
H        -2.52770404947742      -1.16978285371556      -1.72962946336271
H         3.26407820741163       1.16612404890380      -1.70696927222990
H         4.28558786824558       1.16786198903518      -0.20842000996510
H         3.12289167174605       2.51366127971648      -0.51462625894706
H        -2.23472518840529       2.27676837577930      -0.00507522203505
H        -4.04131354195781       2.34082994143822       0.01353672824084
H        -3.18386163383710       1.49504480798693      -1.33397025149455
B         5.44032058539109      -4.23008780862894       1.81381872936829
F         6.53110416013860      -4.66722701766624       1.01619232068820
F         5.92655355036368      -3.74608307659633       3.05739692698732
F         4.55420594592998      -5.31629536764376       2.04157212451549
F         4.74919113081845      -3.19036160719157       1.13943154751444
