35
C11H20N2O2 optimized with ADF in AMS.
N         0.29953754915438      -0.72126733831989       0.50517456370965
N        -1.43406217295061       0.53380999300823       0.85939210388113
C         1.59772840679804      -1.37162952364916       0.73987042636456
C         2.56256016058523      -1.16826197427210      -0.42240947597926
C         2.95145704824752       0.29336934416371      -0.63228927376033
C        -0.26663824685346       0.12160417546201       1.38465111791935
C        -0.48506005674665      -0.79171190319553      -0.63239632099333
C        -1.56998815829189       0.00379144986363      -0.41338675648258
C        -2.27522983224861       1.58005434936174       1.44663008758054
C         3.84225958967670       0.48522861567594      -1.85510317401984
C        -2.01673045162545       2.93545219594858       0.80355916726600
H         1.99255675207012      -0.89722631653443       1.65438048147479
H         1.41290759230226      -2.44145439886741       0.93000615079522
H         2.13580330175845      -1.58985261762915      -1.35224066043694
H         3.46149705651418      -1.77346809377846      -0.20429291331473
H         2.04559809534371       0.91690429736313      -0.71160070759256
H         3.46727540935750       0.65357964501134       0.27425959705729
H         0.23415610755888       0.40572102893422       2.32561633380176
H        -0.21408003074817      -1.39659787531257      -1.48751992625206
H        -3.32412565620271       1.25834510098759       1.34411737082747
H        -2.03261574675194       1.60389498031959       2.51891032746904
H        -2.42002915050874       0.23266665293337      -1.04384345228323
H         3.33124849924904       0.15763620367565      -2.77554020320210
H         4.77574472719351      -0.09509064881810      -1.76737679958951
H         4.11411481283462       1.54391830436777      -1.98234208219448
H        -0.94477626222490       3.17379028699131       0.88552867681328
H        -2.61335412379271       3.70347146927170       1.31837577150986
H        -2.30528518294737       2.93020317208623      -0.25859381046653
C         2.79825728593888       3.23646488213070       2.42545948625363
C         1.82543709375189       2.09266322788379       2.13399957794663
O         1.86812000202257       1.08147071817520       2.90507999789120
O         1.03527039540786       2.24993592524533       1.15024976483470
H         2.97274633882278       3.83929717085513       1.52380666326521
H         2.35297247509434       3.88846427522851       3.19398209938106
H         3.74594278041072       2.85104804383238       2.82711965372510
