38
C10H22BF4N optimized with DFTB in AMS.
N        -0.09259318570599       0.27242987227819      -0.07575004133049
C        -1.27984836896468      -0.25172817242880      -0.82043207061909
C        -0.71224254311201       0.90613049689588       1.13847767306303
C        -2.21996749920841      -0.79171470724368       0.25618690903631
C        -1.84643313851926      -0.02965964184535       1.53741541435062
C         0.63437545596762       1.28861851946729      -0.90030669677922
C         0.80941614281384      -0.84962502373115       0.35988627721298
C         1.84154135233978       1.90413679891371      -0.19267362681384
C         1.52540147646867      -1.59537571550010      -0.76055190022784
C         2.43656196923618       3.00920249175813      -1.06226545274876
C         2.33828604034441      -2.72735473525592      -0.12832527197838
H        -1.73506291932488       0.58775264710975      -1.35180513817366
H        -0.96544528474562      -1.00351867171224      -1.54347924806237
H         0.04100496197720       1.01337686767900       1.91846440736859
H        -1.08986212490824       1.88715985510085       0.84020132420924
H        -3.25793173929786      -0.61765525881824      -0.03287592269683
H        -2.07969140437779      -1.86642783151285       0.38745407251501
H        -1.50655441429242      -0.71462111306591       2.31658589579701
H        -2.68989354714443       0.54336000735556       1.92573117017471
H         0.93789900119966       0.79913414814123      -1.82953501783171
H        -0.09010009848879       2.07065862953907      -1.14760415183267
H         1.54884284040861      -0.41587015143462       1.03120379325320
H         0.19880348260752      -1.53957977088442       0.94308439402099
H         1.54097829074407       2.31588519349887       0.77264241904770
H         2.60227240900642       1.14488507369334      -0.00337643211627
H         2.20289570746619      -0.92433750841491      -1.29627881641135
H         0.81797801633577      -2.01185556551554      -1.48483665066946
H         2.75656785512561       2.61176764831994      -2.02668627781333
H         1.70592735108451       3.80055881474530      -1.23596008925577
H         3.30181809852686       3.43943906444558      -0.55964293614739
H         2.98567057973802      -2.33104456055161       0.65421475609665
H         1.67389886695732      -3.46837960838466       0.31671677904107
H         2.95050366054318      -3.21411196593057      -0.88686920546811
B         1.87741870589802      -0.27754607658904       3.29325057232307
F         0.53858988735590      -0.75251700400818       3.16348342052885
F         1.91556376334868       0.96986902812151       2.58668519709475
F         2.71899684534940      -1.16773259663553       2.61457029832103
F         2.22078396654694      -0.11168216259989       4.60091900372175
