34
C12H19NO2 optimized with ForceField in AMS.
N         1.73515121517819      -0.02951364816304      -0.49437561035281
C        -0.64783325855288      -0.00969614782581       0.10630828065762
C        -2.08291219404654      -0.04678251567266      -0.42772092681430
C         0.37118937292052      -0.07167715503614      -1.03576020599774
C        -3.09887294092221       0.02541193539497       0.71752747620707
C        -4.52923999963581       0.00575557312962       0.18715376261293
C         2.37121160473968      -1.19500194159950      -0.16343348952318
C         2.34903865289571       1.17683848185460      -0.29263814070222
C         3.65771546331573      -1.17103833915834       0.38061234945169
C         3.63526827719583       1.23625441624800       0.24930551969613
C         4.29074786355195       0.05350113765894       0.58740772186994
H        -0.48390332520491      -0.87412096828878       0.78676240244243
H        -0.49113947034789       0.92824334523800       0.68293714498290
H        -2.23600447376577      -0.99130866176048      -0.99130289134769
H        -2.24214083207382       0.81053391659038      -1.11850703058366
H         0.21969357095217      -1.00309064230160      -1.62680776671643
H         0.20858860558690       0.78041589275811      -1.73352501441219
H        -2.94426061613342       0.96059143211105       1.29880057625712
H        -2.95640055610681      -0.84121411490722       1.39956228555358
H        -4.70894514650995       0.88363711500140      -0.46949175717631
H        -5.24107865082526       0.04779657208186       1.03836457365989
H        -4.71611500853010      -0.92679082441240      -0.38699978276929
H         1.88257579392421      -2.15062676634534      -0.31282943800771
H         1.84292980801649       2.10131429664439      -0.54470898486109
H         4.15796369777394      -2.09484202341803       0.64126132992109
H         4.11804587234977       2.19212170570123       0.40726393913981
H         5.28672005122464       0.08586153336086       1.00972053581542
C        -2.47936149677219      -1.77075029484270      -4.13327528999413
C        -2.56761819904735      -2.97161856823966      -3.24456580335568
O        -3.42275472556954      -3.02558780054594      -2.37579424145023
O        -1.78866410220966      -3.90051739921979      -3.38601620686072
H        -3.43796505654188      -1.63922789316313      -4.67797664348112
H        -2.28002646961561      -0.86548933369728      -3.52255368035603
H        -1.65946897411415      -1.89060024137559      -4.87356608220512
