26
C4H12F2N2O4S2 optimized with ForceField in AMS.
N         0.01791145954031      -0.04089775736565       0.00179431243840
C        -0.92349999721524      -1.13469011075752       0.32886032182122
C         0.70753732756443       0.40118272650072       1.23403338729731
C        -0.72952123960772       1.09578695711508      -0.58038053453854
C         1.01747391783616      -0.52611841022404      -0.97541236352129
H        -0.38630505098082      -2.00614903102340       0.76614637359966
H        -1.68602933004975      -0.79768132759926       1.06652221006073
H        -1.45965056857614      -1.48541744181266      -0.58149623012760
H         1.43237732488391       1.21652491024536       1.01457129954712
H        -0.02097678549383       0.78256522964362       1.98441124063838
H         1.27061994700879      -0.43868370429054       1.69940203165629
H        -0.04480904321955       1.93638640178538      -0.83277292779215
H        -1.25577630311047       0.79134085034000      -1.51294846623618
H        -1.49293861982193       1.47899807307406       0.13342397625158
H         1.73711859946797       0.27976009600850      -1.24357349622599
H         1.59903199771450      -1.37993196032454      -0.56071038582572
H         0.52502807626899      -0.87059126790716      -1.91244360015252
N         2.59269307469771       6.02926908707480       0.84242269448093
S         3.63624458757168       7.20211560102954       1.30449021251463
S         1.86681648346166       5.05854282703621       1.94170011391776
F         5.05055149588512       6.49927197543963       1.86029531969532
F         0.82255083922858       5.96762263858916       2.88317113444948
O         3.94630653255985       8.08939005101864       0.13304351383740
O         3.03154252867134       8.01817444613593       2.41194904158695
O         2.90327003964367       4.43311451018907       2.83196341087189
O         1.09416972417077       3.98430003317904       1.23171780435495
