35
C9H17F6N2P optimized with ForceField in AMS.
N        -0.02717118108592      -1.32734299194969       0.34573708917491
N        -2.04271489268432      -0.39826546731325       0.22806191198295
C         1.32329943644580      -1.64233647188846       0.80698382694588
C         2.37482676361412      -0.87875053792548      -0.00858368567777
C         2.21283551544970       0.64181966069782       0.13276827967269
C        -0.93346596565798      -0.55499668112824       0.97540640020810
C        -0.58306764254931      -1.67554365200599      -0.83244174858929
C        -1.83456907659541      -1.09778480609937      -0.90578037432488
C        -3.20097344426821       0.43229529481819       0.54499870363383
C         3.31085380363432       1.38793295828882      -0.61713012839455
C        -3.15262864493835       1.73139395610827      -0.25115602907582
H         1.42905930305834      -1.38214950569357       1.88320429473738
H         1.49867140180794      -2.73554971583849       0.70706264543761
H         2.29543691506549      -1.16817525935383      -1.07936260488688
H         3.38336101411609      -1.17729372826848       0.35267427435693
H         1.22910505844653       0.95760127158161      -0.27835830443895
H         2.25205566083017       0.92572055508907       1.20665746361119
H        -0.76996497204606      -0.07926951550057       1.93436219342066
H        -0.10514853794879      -2.28409707303732      -1.58953330863558
H        -4.13410381056804      -0.12222894469250       0.30779601477006
H        -3.20829834044855       0.67400345506770       1.63023355429715
H        -2.53200640059878      -1.16580007523082      -1.73065183880845
H         3.28025362415118       1.13488183308703      -1.69813917009881
H         4.30774105233288       1.12463226297167      -0.20410941549060
H         3.15943936121747       2.48116263700260      -0.50436239226161
H        -2.22569685110480       2.29272317662299      -0.00509160149090
H        -4.03108381858589       2.36030042719793       0.00408247319483
H        -3.17064356195125       1.51647402254612      -1.34102557187419
P         1.59871340703210       5.04195428642253       1.49447650762326
F         2.15259870607457       6.65019446949687       1.25178600862102
F         1.36096333409970       5.41909539400664       3.15380072056158
F        -0.02458466221503       5.50738059573151       1.17876257704941
F         1.07236544010314       3.42752929043118       1.75544466416794
F         1.80200913077460       4.75132112537909      -0.18622700455209
F         3.20756984649255       4.52388393537842       1.80415852173301
